<?xml version="1.0" encoding="UTF-8"?>
<!-- generated on 2018-07-24 10:31:03.836591 by $Id$ via randomTrips.py
  options: 
-->
<routes xmlns:xsi="http://www.w3.org/2001/XMLSchema-instance" xsi:noNamespaceSchemaLocation="http://sumo.dlr.de/xsd/routes_file.xsd">
    <vType id="veh_passenger" speedFactor="normc(1.00,0.10,0.20,2.00)" vClass="passenger">
    </vType>
    <trip id="veh0" depart="0.00" departLane="best" from="415849045#6" to="-258707678#5" type="veh_passenger"/>
    <trip id="veh1" depart="0.80" departLane="best" from="-8932468#2" to="-8930166#0" type="veh_passenger"/>
    <trip id="veh2" depart="1.60" departLane="best" from="428045956#4" to="51062011" type="veh_passenger"/>
    <trip id="veh3" depart="2.40" departLane="best" from="8950901#3" to="-415849081" type="veh_passenger"/>
    <trip id="veh4" depart="3.20" departLane="best" from="-8953791" to="-269869578#2" type="veh_passenger"/>
    <trip id="veh5" depart="3.99" departLane="best" from="-50980310#3" to="377585177#3" type="veh_passenger"/>
    <trip id="veh6" depart="4.79" departLane="best" from="-24287075#2" to="-51062010#1" type="veh_passenger"/>
    <trip id="veh7" depart="5.59" departLane="best" from="415849078" to="415850742#2" type="veh_passenger"/>
    <trip id="veh8" depart="6.39" departLane="best" from="8929983#1" to="-159230295#4" type="veh_passenger"/>
    <trip id="veh9" depart="7.19" departLane="best" from="8928697#2" to="60726012#1" type="veh_passenger"/>
    <trip id="veh10" depart="7.99" departLane="best" from="-8940584" to="-448447940#6" type="veh_passenger"/>
    <trip id="veh11" depart="8.79" departLane="best" from="8963922#0" to="-8958782#2" type="veh_passenger"/>
    <trip id="veh12" depart="9.59" departLane="best" from="-415849085#0" to="-415849096" type="veh_passenger"/>
    <trip id="veh13" depart="10.38" departLane="best" from="8938875#4" to="421572323" type="veh_passenger"/>
    <trip id="veh14" depart="11.18" departLane="best" from="8929558#0" to="8932468#2" type="veh_passenger"/>
    <trip id="veh15" depart="11.98" departLane="best" from="-8970151#0" to="8967661" type="veh_passenger"/>
    <trip id="veh16" depart="12.78" departLane="best" from="-8946653#3" to="415850755" type="veh_passenger"/>
    <trip id="veh17" depart="13.58" departLane="best" from="8936718#0" to="46933996" type="veh_passenger"/>
    <trip id="veh18" depart="14.38" departLane="best" from="417044466#6" to="-28485229#1" type="veh_passenger"/>
    <trip id="veh19" depart="15.18" departLane="best" from="-51062010#1" to="-8947165#0" type="veh_passenger"/>
    <trip id="veh20" depart="15.98" departLane="best" from="-415849046" to="-8933892#2" type="veh_passenger"/>
    <trip id="veh21" depart="16.77" departLane="best" from="-415849096" to="-8943215" type="veh_passenger"/>
    <trip id="veh23" depart="18.37" departLane="best" from="-8945150" to="-534658218#0" type="veh_passenger"/>
    <trip id="veh24" depart="19.17" departLane="best" from="-8931199#0" to="8962899#3" type="veh_passenger"/>
    <trip id="veh25" depart="19.97" departLane="best" from="415849070#2" to="428045955#2" type="veh_passenger"/>
    <trip id="veh26" depart="20.77" departLane="best" from="-46933997" to="8932468#2" type="veh_passenger"/>
    <trip id="veh27" depart="21.57" departLane="best" from="-428045956#3" to="-8965856#0" type="veh_passenger"/>
    <trip id="veh28" depart="22.37" departLane="best" from="8968919#2" to="50876130#4" type="veh_passenger"/>
    <trip id="veh29" depart="23.16" departLane="best" from="236036389#0" to="516441651#1" type="veh_passenger"/>
    <trip id="veh30" depart="23.96" departLane="best" from="8938010#0" to="8937168" type="veh_passenger"/>
    <trip id="veh31" depart="24.76" departLane="best" from="-51062011" to="-271049179#0" type="veh_passenger"/>
    <trip id="veh32" depart="25.56" departLane="best" from="-8936718#8" to="-8942111#0" type="veh_passenger"/>
    <trip id="veh33" depart="26.36" departLane="best" from="-50980306#1" to="8962997#7" type="veh_passenger"/>
    <trip id="veh34" depart="27.16" departLane="best" from="8946750" to="-8956478" type="veh_passenger"/>
    <trip id="veh35" depart="27.96" departLane="best" from="415849089#1" to="-8968669#0" type="veh_passenger"/>
    <trip id="veh36" depart="28.76" departLane="best" from="8958429" to="275259449" type="veh_passenger"/>
    <trip id="veh37" depart="29.55" departLane="best" from="-8930166#3" to="-8936718#2" type="veh_passenger"/>
    <trip id="veh38" depart="30.35" departLane="best" from="236036390#0" to="-8941523#1" type="veh_passenger"/>
    <trip id="veh39" depart="31.15" departLane="best" from="271049179#3" to="8957238#5" type="veh_passenger"/>
    <trip id="veh40" depart="31.95" departLane="best" from="8970151#1" to="415849048#0" type="veh_passenger"/>
    <trip id="veh41" depart="32.75" departLane="best" from="-415849081" to="-28485247#0" type="veh_passenger"/>
    <trip id="veh42" depart="33.55" departLane="best" from="-415849109#3" to="47472517#1" type="veh_passenger"/>
    <trip id="veh43" depart="34.35" departLane="best" from="534658218#0" to="159230296#1" type="veh_passenger"/>
    <trip id="veh44" depart="35.15" departLane="best" from="-287411807#1" to="-8966417#0" type="veh_passenger"/>
    <trip id="veh45" depart="35.94" departLane="best" from="8970002" to="415849096" type="veh_passenger"/>
    <trip id="veh46" depart="36.74" departLane="best" from="8966417#0" to="8950901#3" type="veh_passenger"/>
    <trip id="veh47" depart="37.54" departLane="best" from="-236036390#2" to="8930166#3" type="veh_passenger"/>
    <trip id="veh48" depart="38.34" departLane="best" from="415850757" to="415849109#1" type="veh_passenger"/>
    <trip id="veh49" depart="39.14" departLane="best" from="-8931199#0" to="50876130#6" type="veh_passenger"/>
    <trip id="veh50" depart="39.94" departLane="best" from="-415849110#1" to="241679659" type="veh_passenger"/>
    <trip id="veh51" depart="40.74" departLane="best" from="-8958656#8" to="8964054" type="veh_passenger"/>
    <trip id="veh52" depart="41.54" departLane="best" from="8946655" to="-8941929" type="veh_passenger"/>
    <trip id="veh53" depart="42.33" departLane="best" from="-8964929#0" to="-50877464#1" type="veh_passenger"/>
    <trip id="veh54" depart="43.13" departLane="best" from="8958196#1" to="8953130" type="veh_passenger"/>
    <trip id="veh55" depart="43.93" departLane="best" from="-8935757" to="50876130#0" type="veh_passenger"/>
    <trip id="veh56" depart="44.73" departLane="best" from="28485337#3" to="-428045956#3" type="veh_passenger"/>
    <trip id="veh57" depart="45.53" departLane="best" from="50980298#0" to="415849110#0" type="veh_passenger"/>
    <trip id="veh58" depart="46.33" departLane="best" from="51062010#0" to="415849098" type="veh_passenger"/>
    <trip id="veh59" depart="47.13" departLane="best" from="-120595215" to="-8958268" type="veh_passenger"/>
    <trip id="veh60" depart="47.93" departLane="best" from="-241679659" to="8961441" type="veh_passenger"/>
    <trip id="veh61" depart="48.73" departLane="best" from="8947165#0" to="8946086#1" type="veh_passenger"/>
    <trip id="veh62" depart="49.52" departLane="best" from="-8936718#1" to="-333016923#0" type="veh_passenger"/>
    <trip id="veh63" depart="50.32" departLane="best" from="8947165#0" to="8963229" type="veh_passenger"/>
    <trip id="veh64" depart="51.12" departLane="best" from="-415849057#1" to="287411807#1" type="veh_passenger"/>
    <trip id="veh65" depart="51.92" departLane="best" from="-352368627#2" to="8936344" type="veh_passenger"/>
    <trip id="veh66" depart="52.72" departLane="best" from="50980307#1" to="-417706852" type="veh_passenger"/>
    <trip id="veh67" depart="53.52" departLane="best" from="-8962000#1" to="415850748" type="veh_passenger"/>
    <trip id="veh68" depart="54.32" departLane="best" from="-8930166#3" to="8953615" type="veh_passenger"/>
    <trip id="veh69" depart="55.12" departLane="best" from="-8953942" to="-534658218#1" type="veh_passenger"/>
    <trip id="veh70" depart="55.91" departLane="best" from="-8970372#1" to="8932468#2" type="veh_passenger"/>
    <trip id="veh71" depart="56.71" departLane="best" from="-50876135#1" to="-8955198#0" type="veh_passenger"/>
    <trip id="veh72" depart="57.51" departLane="best" from="8970002" to="50876135#2" type="veh_passenger"/>
    <trip id="veh73" depart="58.31" departLane="best" from="-8957238#1" to="415849076" type="veh_passenger"/>
    <trip id="veh74" depart="59.11" departLane="best" from="-415850758#2" to="-8930166#3" type="veh_passenger"/>
    <trip id="veh75" depart="59.91" departLane="best" from="-8939405#0" to="417706950#3" type="veh_passenger"/>
    <trip id="veh76" depart="60.71" departLane="best" from="-51062011" to="-8929983#1" type="veh_passenger"/>
    <trip id="veh77" depart="61.51" departLane="best" from="-366178056#2" to="50876126" type="veh_passenger"/>
    <trip id="veh78" depart="62.30" departLane="best" from="-51062011" to="8958656#0" type="veh_passenger"/>
    <trip id="veh79" depart="63.10" departLane="best" from="8942286#11" to="-377584893#1" type="veh_passenger"/>
    <trip id="veh80" depart="63.90" departLane="best" from="-517223292#1" to="50980315#1" type="veh_passenger"/>
    <trip id="veh81" depart="64.70" departLane="best" from="-50980309#2" to="-417706911#1" type="veh_passenger"/>
    <trip id="veh83" depart="66.30" departLane="best" from="8929558#1" to="-50980315#0" type="veh_passenger"/>
    <trip id="veh84" depart="67.10" departLane="best" from="-415849091#1" to="237467323" type="veh_passenger"/>
    <trip id="veh85" depart="67.90" departLane="best" from="-8954492" to="28485159#1" type="veh_passenger"/>
    <trip id="veh86" depart="68.69" departLane="best" from="421572322#1" to="51062001#1" type="veh_passenger"/>
    <trip id="veh87" depart="69.49" departLane="best" from="8968669#0" to="-415849099" type="veh_passenger"/>
    <trip id="veh88" depart="70.29" departLane="best" from="-8950901#1" to="-8958844" type="veh_passenger"/>
    <trip id="veh89" depart="71.09" departLane="best" from="8942286#5" to="-8936718#6" type="veh_passenger"/>
    <trip id="veh90" depart="71.89" departLane="best" from="-50876130#0" to="25927364#3" type="veh_passenger"/>
    <trip id="veh91" depart="72.69" departLane="best" from="-8953791" to="-8943215" type="veh_passenger"/>
    <trip id="veh92" depart="73.49" departLane="best" from="-8928820" to="8960968#1" type="veh_passenger"/>
    <trip id="veh93" depart="74.29" departLane="best" from="-8957750#1" to="8950901#4" type="veh_passenger"/>
    <trip id="veh94" depart="75.08" departLane="best" from="159230295#0" to="-28485247#4" type="veh_passenger"/>
    <trip id="veh95" depart="75.88" departLane="best" from="8970372#0" to="8946653#3" type="veh_passenger"/>
    <trip id="veh96" depart="76.68" departLane="best" from="8966250" to="8960968#9" type="veh_passenger"/>
    <trip id="veh97" depart="77.48" departLane="best" from="8938875#7" to="-50876128#4" type="veh_passenger"/>
    <trip id="veh98" depart="78.28" departLane="best" from="-8962997#8" to="-78135426#1" type="veh_passenger"/>
    <trip id="veh99" depart="79.08" departLane="best" from="-8950185" to="-333016923#0" type="veh_passenger"/>
    <trip id="veh100" depart="79.88" departLane="best" from="-8946653#3" to="8968669#2" type="veh_passenger"/>
    <trip id="veh101" depart="80.68" departLane="best" from="-8930166#3" to="8937744" type="veh_passenger"/>
    <trip id="veh102" depart="81.47" departLane="best" from="-8958782#1" to="232075731" type="veh_passenger"/>
    <trip id="veh103" depart="82.27" departLane="best" from="8963922#0" to="8970151#2" type="veh_passenger"/>
    <trip id="veh104" depart="83.07" departLane="best" from="232075811#0" to="8929983#5" type="veh_passenger"/>
    <trip id="veh105" depart="83.87" departLane="best" from="-421572323" to="-8949263#2" type="veh_passenger"/>
    <trip id="veh106" depart="84.67" departLane="best" from="8965856#1" to="417044466#3" type="veh_passenger"/>
    <trip id="veh107" depart="85.47" departLane="best" from="120595219" to="8934153#0" type="veh_passenger"/>
    <trip id="veh108" depart="86.27" departLane="best" from="-28485247#4" to="417706888" type="veh_passenger"/>
    <trip id="veh109" depart="87.07" departLane="best" from="-8965218#2" to="8949612" type="veh_passenger"/>
    <trip id="veh110" depart="87.87" departLane="best" from="-421811146#0" to="8965218#0" type="veh_passenger"/>
    <trip id="veh111" depart="88.66" departLane="best" from="-415849046" to="-50980309#3" type="veh_passenger"/>
    <trip id="veh112" depart="89.46" departLane="best" from="282118322#0" to="51062010#1" type="veh_passenger"/>
    <trip id="veh113" depart="90.26" departLane="best" from="-51062014#4" to="-415850765#1" type="veh_passenger"/>
    <trip id="veh114" depart="91.06" departLane="best" from="8950758" to="-8936718#19" type="veh_passenger"/>
    <trip id="veh115" depart="91.86" departLane="best" from="282118322#0" to="46933996" type="veh_passenger"/>
    <trip id="veh116" depart="92.66" departLane="best" from="-8953765" to="417706879" type="veh_passenger"/>
    <trip id="veh117" depart="93.46" departLane="best" from="-8967965#5" to="8962514#0" type="veh_passenger"/>
    <trip id="veh118" depart="94.26" departLane="best" from="-50877465" to="8929983#0" type="veh_passenger"/>
    <trip id="veh119" depart="95.05" departLane="best" from="-517223292#2" to="-8968669#1" type="veh_passenger"/>
    <trip id="veh120" depart="95.85" departLane="best" from="415849111#3" to="-8949809#0" type="veh_passenger"/>
    <trip id="veh121" depart="96.65" departLane="best" from="-8936996#1" to="8935102" type="veh_passenger"/>
    <trip id="veh122" depart="97.45" departLane="best" from="-366178056#5" to="275259449" type="veh_passenger"/>
    <trip id="veh123" depart="98.25" departLane="best" from="-366178057#0" to="-78135426#0" type="veh_passenger"/>
    <trip id="veh124" depart="99.05" departLane="best" from="-8930166#3" to="8962415#0" type="veh_passenger"/>
    <trip id="veh125" depart="99.85" departLane="best" from="8947602" to="8953791" type="veh_passenger"/>
    <trip id="veh126" depart="100.65" departLane="best" from="-8944909#1" to="-47472517#0" type="veh_passenger"/>
    <trip id="veh127" depart="101.44" departLane="best" from="8936718#17" to="8928697#2" type="veh_passenger"/>
    <trip id="veh128" depart="102.24" departLane="best" from="287558712#0" to="8968669#3" type="veh_passenger"/>
    <trip id="veh129" depart="103.04" departLane="best" from="415849087#1" to="-159230295#7" type="veh_passenger"/>
    <trip id="veh130" depart="103.84" departLane="best" from="415849101" to="8962917#1" type="veh_passenger"/>
    <trip id="veh131" depart="104.64" departLane="best" from="-415849108#1" to="415850758#0" type="veh_passenger"/>
    <trip id="veh132" depart="105.44" departLane="best" from="-8932385" to="421811146#0" type="veh_passenger"/>
    <trip id="veh134" depart="107.04" departLane="best" from="377584893#0" to="-8941929" type="veh_passenger"/>
    <trip id="veh135" depart="107.83" departLane="best" from="-8963148#0" to="8958656#0" type="veh_passenger"/>
    <trip id="veh136" depart="108.63" departLane="best" from="8938875#0" to="-415849091#0" type="veh_passenger"/>
    <trip id="veh137" depart="109.43" departLane="best" from="-8954492" to="-8943215" type="veh_passenger"/>
    <trip id="veh138" depart="110.23" departLane="best" from="-120595220#1" to="8936718#8" type="veh_passenger"/>
    <trip id="veh139" depart="111.03" departLane="best" from="377585177#3" to="-8941453#1" type="veh_passenger"/>
    <trip id="veh140" depart="111.83" departLane="best" from="469114860" to="415850755" type="veh_passenger"/>
    <trip id="veh141" depart="112.63" departLane="best" from="-8955205#2" to="-232075811#1" type="veh_passenger"/>
    <trip id="veh143" depart="114.22" departLane="best" from="8936718#19" to="417706846" type="veh_passenger"/>
    <trip id="veh144" depart="115.02" departLane="best" from="-417711165" to="-417706846" type="veh_passenger"/>
    <trip id="veh145" depart="115.82" departLane="best" from="-8936718#11" to="8957274" type="veh_passenger"/>
    <trip id="veh146" depart="116.62" departLane="best" from="534658218#4" to="8950901#3" type="veh_passenger"/>
    <trip id="veh147" depart="117.42" departLane="best" from="8953615" to="-534658218#0" type="veh_passenger"/>
    <trip id="veh148" depart="118.22" departLane="best" from="-8928820" to="-415849109#1" type="veh_passenger"/>
    <trip id="veh149" depart="119.02" departLane="best" from="51062010#1" to="8955198#2" type="veh_passenger"/>
    <trip id="veh150" depart="119.82" departLane="best" from="-8951005" to="46933997" type="veh_passenger"/>
    <trip id="veh151" depart="120.61" departLane="best" from="-421572322#2" to="8961441" type="veh_passenger"/>
    <trip id="veh152" depart="121.41" departLane="best" from="8943091#1" to="8967847#2" type="veh_passenger"/>
    <trip id="veh153" depart="122.21" departLane="best" from="8929983#4" to="8954492" type="veh_passenger"/>
    <trip id="veh154" depart="123.01" departLane="best" from="-241679661" to="8933115" type="veh_passenger"/>
    <trip id="veh155" depart="123.81" departLane="best" from="-8938010#2" to="8962000#1" type="veh_passenger"/>
    <trip id="veh156" depart="124.61" departLane="best" from="60725995#0" to="8951005" type="veh_passenger"/>
    <trip id="veh157" depart="125.41" departLane="best" from="8929983#4" to="-8942081" type="veh_passenger"/>
    <trip id="veh158" depart="126.21" departLane="best" from="517223292#2" to="-415849111#3" type="veh_passenger"/>
    <trip id="veh159" depart="127.00" departLane="best" from="8944909#1" to="8950185" type="veh_passenger"/>
    <trip id="veh160" depart="127.80" departLane="best" from="-50980316" to="8943091#1" type="veh_passenger"/>
    <trip id="veh162" depart="129.40" departLane="best" from="534658218#3" to="-8931246#0" type="veh_passenger"/>
    <trip id="veh163" depart="130.20" departLane="best" from="-241679661" to="-50980317#2" type="veh_passenger"/>
    <trip id="veh164" depart="131.00" departLane="best" from="-8937886#0" to="8951005" type="veh_passenger"/>
    <trip id="veh165" depart="131.80" departLane="best" from="8965218#2" to="-8944464" type="veh_passenger"/>
    <trip id="veh166" depart="132.60" departLane="best" from="415849048#0" to="-8968919#0" type="veh_passenger"/>
    <trip id="veh167" depart="133.40" departLane="best" from="8968435" to="415849108#0" type="veh_passenger"/>
    <trip id="veh168" depart="134.19" departLane="best" from="8960968#4" to="-415850759#0" type="veh_passenger"/>
    <trip id="veh169" depart="134.99" departLane="best" from="8966417#0" to="-50877464#1" type="veh_passenger"/>
    <trip id="veh170" depart="135.79" departLane="best" from="8964717#1" to="-8942081" type="veh_passenger"/>
    <trip id="veh171" depart="136.59" departLane="best" from="-415849109#0" to="241679659" type="veh_passenger"/>
    <trip id="veh172" depart="137.39" departLane="best" from="421572322#0" to="-8955205#3" type="veh_passenger"/>
    <trip id="veh173" depart="138.19" departLane="best" from="28485247#5" to="415849051#0" type="veh_passenger"/>
    <trip id="veh174" depart="138.99" departLane="best" from="-8948549" to="417044115" type="veh_passenger"/>
    <trip id="veh175" depart="139.79" departLane="best" from="-8929627#2" to="8929473" type="veh_passenger"/>
    <trip id="veh176" depart="140.58" departLane="best" from="-120595215" to="8960968#6" type="veh_passenger"/>
    <trip id="veh177" depart="141.38" departLane="best" from="-8970151#4" to="8930166#0" type="veh_passenger"/>
    <trip id="veh178" depart="142.18" departLane="best" from="47472517#1" to="50980316" type="veh_passenger"/>
    <trip id="veh179" depart="142.98" departLane="best" from="-8943555" to="-366178057#2" type="veh_passenger"/>
    <trip id="veh180" depart="143.78" departLane="best" from="415849103#0" to="-8958656#14" type="veh_passenger"/>
    <trip id="veh181" depart="144.58" departLane="best" from="-8936718#5" to="8949472#0" type="veh_passenger"/>
    <trip id="veh183" depart="146.18" departLane="best" from="-8936718#13" to="-8970002" type="veh_passenger"/>
    <trip id="veh184" depart="146.97" departLane="best" from="-8950901#1" to="-8949263#0" type="veh_passenger"/>
    <trip id="veh185" depart="147.77" departLane="best" from="-415850764#2" to="159230295#5" type="veh_passenger"/>
    <trip id="veh186" depart="148.57" departLane="best" from="8960968#7" to="51062011" type="veh_passenger"/>
    <trip id="veh187" depart="149.37" departLane="best" from="8955205#2" to="45530415#1" type="veh_passenger"/>
    <trip id="veh188" depart="150.17" departLane="best" from="-8935812" to="415850744#1" type="veh_passenger"/>
    <trip id="veh189" depart="150.97" departLane="best" from="-120595215" to="-8946655" type="veh_passenger"/>
    <trip id="veh190" depart="151.77" departLane="best" from="-8955205#4" to="417044466#5" type="veh_passenger"/>
    <trip id="veh191" depart="152.57" departLane="best" from="415849088#1" to="282118316#0" type="veh_passenger"/>
    <trip id="veh192" depart="153.36" departLane="best" from="-8962000#0" to="8957417" type="veh_passenger"/>
    <trip id="veh193" depart="154.16" departLane="best" from="534658218#4" to="-50876130#5" type="veh_passenger"/>
    <trip id="veh194" depart="154.96" departLane="best" from="-415849055" to="415849065" type="veh_passenger"/>
    <trip id="veh195" depart="155.76" departLane="best" from="366178056#7" to="-8958656#8" type="veh_passenger"/>
    <trip id="veh196" depart="156.56" departLane="best" from="415850742#0" to="-8930166#3" type="veh_passenger"/>
    <trip id="veh197" depart="157.36" departLane="best" from="-50876134" to="-258707678#4" type="veh_passenger"/>
    <trip id="veh198" depart="158.16" departLane="best" from="-78135426#1" to="28485247#0" type="veh_passenger"/>
    <trip id="veh199" depart="158.96" departLane="best" from="8939405#0" to="-377585177#4" type="veh_passenger"/>
    <trip id="veh200" depart="159.75" departLane="best" from="-8953264#2" to="50876126" type="veh_passenger"/>
    <trip id="veh201" depart="160.55" departLane="best" from="-50876132#0" to="596240901#1" type="veh_passenger"/>
    <trip id="veh202" depart="161.35" departLane="best" from="-8964054" to="-8936718#14" type="veh_passenger"/>
    <trip id="veh203" depart="162.15" departLane="best" from="415849091#0" to="-159230295#2" type="veh_passenger"/>
    <trip id="veh204" depart="162.95" departLane="best" from="50876130#0" to="8936718#6" type="veh_passenger"/>
    <trip id="veh205" depart="163.75" departLane="best" from="-415849108#1" to="236036389#2" type="veh_passenger"/>
    <trip id="veh206" depart="164.55" departLane="best" from="-8967847#2" to="-28485247#3" type="veh_passenger"/>
    <trip id="veh207" depart="165.35" departLane="best" from="-8928820" to="8949472#0" type="veh_passenger"/>
    <trip id="veh208" depart="166.14" departLane="best" from="-8958822#2" to="8941774" type="veh_passenger"/>
    <trip id="veh209" depart="166.94" departLane="best" from="415849109#4" to="8968757#0" type="veh_passenger"/>
    <trip id="veh210" depart="167.74" departLane="best" from="282118322#0" to="8963922#4" type="veh_passenger"/>
    <trip id="veh211" depart="168.54" departLane="best" from="8950901#2" to="428045956#4" type="veh_passenger"/>
    <trip id="veh213" depart="170.14" departLane="best" from="8936718#10" to="415850744#1" type="veh_passenger"/>
    <trip id="veh214" depart="170.94" departLane="best" from="8953130" to="8933859" type="veh_passenger"/>
    <trip id="veh215" depart="171.74" departLane="best" from="-8962000#1" to="-8938875#6" type="veh_passenger"/>
    <trip id="veh216" depart="172.54" departLane="best" from="-8928697#2" to="50876128#5" type="veh_passenger"/>
    <trip id="veh217" depart="173.33" departLane="best" from="50980307#1" to="415849086#1" type="veh_passenger"/>
    <trip id="veh218" depart="174.13" departLane="best" from="359605354" to="-8942699#0" type="veh_passenger"/>
    <trip id="veh219" depart="174.93" departLane="best" from="-415849045#0" to="-8946653#0" type="veh_passenger"/>
    <trip id="veh220" depart="175.73" departLane="best" from="-8932385" to="-8957238#2" type="veh_passenger"/>
    <trip id="veh221" depart="176.53" departLane="best" from="-51062012" to="534467627#0" type="veh_passenger"/>
    <trip id="veh222" depart="177.33" departLane="best" from="417706846" to="-359605354" type="veh_passenger"/>
    <trip id="veh223" depart="178.13" departLane="best" from="-8951345" to="415849111#3" type="veh_passenger"/>
    <trip id="veh224" depart="178.93" departLane="best" from="-8953640#1" to="-517226537#1" type="veh_passenger"/>
    <trip id="veh225" depart="179.72" departLane="best" from="-8953765" to="8958558#1" type="veh_passenger"/>
    <trip id="veh226" depart="180.52" departLane="best" from="271049179#2" to="534658218#3" type="veh_passenger"/>
    <trip id="veh227" depart="181.32" departLane="best" from="8942081" to="8936718#14" type="veh_passenger"/>
    <trip id="veh228" depart="182.12" departLane="best" from="-8946653#3" to="-159230295#3" type="veh_passenger"/>
    <trip id="veh229" depart="182.92" departLane="best" from="-8942286#5" to="8935102" type="veh_passenger"/>
    <trip id="veh230" depart="183.72" departLane="best" from="8941929" to="8964054" type="veh_passenger"/>
    <trip id="veh231" depart="184.52" departLane="best" from="-8953765" to="8934047#1" type="veh_passenger"/>
    <trip id="veh232" depart="185.32" departLane="best" from="120595223" to="421572322#2" type="veh_passenger"/>
    <trip id="veh233" depart="186.11" departLane="best" from="-50980315#1" to="-8929627#3" type="veh_passenger"/>
    <trip id="veh234" depart="186.91" departLane="best" from="-8957037#1" to="-269869578#0" type="veh_passenger"/>
    <trip id="veh235" depart="187.71" departLane="best" from="-8938875#4" to="51062012" type="veh_passenger"/>
    <trip id="veh236" depart="188.51" departLane="best" from="-8950901#5" to="-50876128#1" type="veh_passenger"/>
    <trip id="veh237" depart="189.31" departLane="best" from="-8960968#5" to="-417706846" type="veh_passenger"/>
    <trip id="veh238" depart="190.11" departLane="best" from="338200369#0" to="-258707678#9" type="veh_passenger"/>
    <trip id="veh239" depart="190.91" departLane="best" from="-8949612" to="415855070" type="veh_passenger"/>
    <trip id="veh240" depart="191.71" departLane="best" from="-258707678#0" to="50876131#2" type="veh_passenger"/>
    <trip id="veh241" depart="192.50" departLane="best" from="-417044466#5" to="27925138#2" type="veh_passenger"/>
    <trip id="veh242" depart="193.30" departLane="best" from="-28485225#6" to="-8965546#1" type="veh_passenger"/>
    <trip id="veh243" depart="194.10" departLane="best" from="-50980307#0" to="-8958518" type="veh_passenger"/>
    <trip id="veh244" depart="194.90" departLane="best" from="50877464#1" to="-8965546#1" type="veh_passenger"/>
    <trip id="veh245" depart="195.70" departLane="best" from="50876130#4" to="8946086#1" type="veh_passenger"/>
    <trip id="veh246" depart="196.50" departLane="best" from="-8929473" to="-415849059" type="veh_passenger"/>
    <trip id="veh247" depart="197.30" departLane="best" from="-241679659" to="415849110#0" type="veh_passenger"/>
    <trip id="veh248" depart="198.10" departLane="best" from="8970372#1" to="-8960968#3" type="veh_passenger"/>
    <trip id="veh249" depart="198.89" departLane="best" from="415849078" to="8937676" type="veh_passenger"/>
    <trip id="veh250" depart="199.69" departLane="best" from="415849085#0" to="8935757" type="veh_passenger"/>
    <trip id="veh251" depart="200.49" departLane="best" from="8962899#4" to="-51062010#2" type="veh_passenger"/>
    <trip id="veh252" depart="201.29" departLane="best" from="-241679659" to="-428045956#2" type="veh_passenger"/>
    <trip id="veh253" depart="202.09" departLane="best" from="-415850763" to="50980316" type="veh_passenger"/>
    <trip id="veh254" depart="202.89" departLane="best" from="236036392" to="-8929558#1" type="veh_passenger"/>
    <trip id="veh255" depart="203.69" departLane="best" from="415855092#0" to="8936718#17" type="veh_passenger"/>
    <trip id="veh256" depart="204.49" departLane="best" from="-45530415#1" to="428045955#0" type="veh_passenger"/>
    <trip id="veh257" depart="205.28" departLane="best" from="50876128#1" to="-415850758#1" type="veh_passenger"/>
    <trip id="veh258" depart="206.08" departLane="best" from="8932537" to="8965504#2" type="veh_passenger"/>
    <trip id="veh259" depart="206.88" departLane="best" from="-415849108#1" to="-258707678#6" type="veh_passenger"/>
    <trip id="veh260" depart="207.68" departLane="best" from="-8936718#19" to="51062011" type="veh_passenger"/>
    <trip id="veh261" depart="208.48" departLane="best" from="8963922#0" to="-8968669#2" type="veh_passenger"/>
    <trip id="veh262" depart="209.28" departLane="best" from="417706950#3" to="-415849046" type="veh_passenger"/>
    <trip id="veh263" depart="210.08" departLane="best" from="415855067" to="47472517#1" type="veh_passenger"/>
    <trip id="veh264" depart="210.88" departLane="best" from="-415849098" to="8936996#2" type="veh_passenger"/>
    <trip id="veh265" depart="211.67" departLane="best" from="8939405#1" to="417727485" type="veh_passenger"/>
    <trip id="veh266" depart="212.47" departLane="best" from="-415850758#2" to="8968501#1" type="veh_passenger"/>
    <trip id="veh267" depart="213.27" departLane="best" from="51062014#2" to="-8960740" type="veh_passenger"/>
    <trip id="veh268" depart="214.07" departLane="best" from="-8955205#3" to="-8963922#0" type="veh_passenger"/>
    <trip id="veh269" depart="214.87" departLane="best" from="-8965504#2" to="-8959457#2" type="veh_passenger"/>
    <trip id="veh270" depart="215.67" departLane="best" from="8939405#0" to="8943555" type="veh_passenger"/>
    <trip id="veh271" depart="216.47" departLane="best" from="-415849107" to="8965218#0" type="veh_passenger"/>