<?xml version="1.0" encoding="UTF-8"?>

<!-- generated on Tue Jul 24 10:27:58 2018 by Eclipse SUMO polyconvert Version v0_32_0+2356-ad68282
<configuration xmlns:xsi="http://www.w3.org/2001/XMLSchema-instance" xsi:noNamespaceSchemaLocation="http://sumo.dlr.de/xsd/polyconvertConfiguration.xsd">

    <input>
        <net-file value="/media/sf_sherlock/sumo/tools/2018-07-24-10-27-48/osm.net.xml"/>
        <osm-files value="/media/sf_sherlock/sumo/tools/2018-07-24-10-27-48/osm_bbox.osm.xml"/>
        <osm.keep-full-type value="true"/>
        <type-file value="/media/sf_sherlock/sumo/data/typemap/osmPolyconvert.typ.xml"/>
    </input>

    <output>
        <output-file value="/media/sf_sherlock/sumo/tools/2018-07-24-10-27-48/osm.poly.xml"/>
    </output>

    <processing>
        <poi-layer-offset value="5"/>
    </processing>

    <report>
        <verbose value="true"/>
    </report>

</configuration>
-->

<additional xmlns:xsi="http://www.w3.org/2001/XMLSchema-instance" xsi:noNamespaceSchemaLocation="http://sumo.dlr.de/xsd/additional_file.xsd">
    <location netOffset="-588956.75,-4130673.53" convBoundary="-654.09,-12.64,5832.66,6157.25" origBoundary="-122.003351,37.318184,-121.929782,37.373520" projParameter="+proj=utm +zone=10 +ellps=WGS84 +datum=WGS84 +units=m +no_defs"/>

    <poly id="103922073" type="building.yes" color="255,230,230" fill="1" layer="-1.00" shape="233.029966,563.412831 249.065036,563.750116 249.032775,565.114537 272.580406,565.609593 272.602156,564.400399 275.135917,564.449597 275.208490,560.966336 276.129826,560.987253 276.545750,541.918262 276.498502,541.362976 276.212739,540.738574 275.932525,540.424909 274.980358,539.970934 273.766516,539.957996 273.814854,537.916911 259.702272,537.611163 259.755100,535.148492 254.918041,535.041466 254.900550,535.851262 246.546362,535.673476 246.543406,535.950836 243.106135,535.869828 243.117951,535.592563 241.718163,535.566553 241.725019,534.923078 234.478232,534.768199 232.687524,536.502233 232.583302,541.294443 234.266496,541.334567 234.092791,549.321584 233.330936,549.302371 233.029966,563.412831"/>
    <poly id="103922074" type="building.yes" color="255,230,230" fill="1" layer="-1.00" shape="301.767625,422.786844 322.499034,423.163239 322.513455,422.641897 325.587738,422.696873 325.582177,423.218309 333.591282,423.359204 333.745953,414.672959 331.974013,414.642965 332.190169,402.684159 333.970972,402.714248 334.014133,400.329143 333.340749,400.321961 333.551818,388.840215 334.216342,388.847302 334.300534,384.276792 329.658078,384.193993 329.846320,374.021290 333.204151,374.079292 333.316015,367.744869 329.958182,367.686867 330.139574,357.325464 334.321307,357.403349 334.511565,347.042042 334.874721,347.057011 334.966722,341.754272 333.504761,341.738679 333.747170,328.149094 334.916741,328.161568 335.072003,319.419853 327.931117,319.288218 327.885474,321.906305 323.101336,321.810904 323.144019,319.470177 314.346358,319.309791 314.194785,327.707581 316.223576,327.751405 315.728298,355.085802 307.435714,354.930808 306.908299,384.450707 301.539415,384.349082 300.980104,415.200119 301.910316,415.221132 301.767625,422.786844"/>
    <poly id="103922075" type="building.yes" color="255,230,230" fill="1" layer="-1.00" shape="149.715774,485.322126 171.961649,485.758654 172.806120,443.060506 153.855913,442.681248 153.907292,440.351710 150.620489,440.283439 150.285413,456.779095 149.328625,456.757816 149.038670,471.511937 149.995575,471.522122 149.715774,485.322126"/>
    <poly id="103922076" type="amenity.parking" color="184,184,179" fill="1" layer="-1.00" shape="174.967035,486.456390 264.094421,487.172765 266.434374,445.544637 280.693133,445.452507 285.733623,418.998730 322.233775,295.138809 312.590701,285.338389 221.796878,262.834156 198.419084,337.846930 185.382874,334.623529 178.904660,345.494860 111.989688,396.566066 93.121870,369.269800 72.603914,367.975310 67.993842,465.678880 141.431369,466.926140 141.166967,424.327150 174.548036,436.754533 174.967035,486.456390"/>
    <poly id="103922078" type="building.retail" color="255,230,230" fill="1" layer="-1.00" shape="155.185833,649.063325 265.941551,651.419177 266.028538,647.414574 269.084899,647.480436 269.123904,645.483634 271.631061,645.532549 271.861183,634.750028 268.928858,634.685486 268.982517,632.145154 272.286965,632.213662 272.444871,624.881119 261.433105,624.641702 261.842148,605.384010 242.316755,604.965125 242.355753,602.968323 163.350309,601.294710 162.465229,642.816297 155.324856,642.662616 155.185833,649.063325"/>
    <poly id="103922079" type="building.yes" color="255,230,230" fill="1" layer="-1.00" shape="59.620817,638.937070 77.243340,639.135572 77.210066,642.264190 82.393194,642.319316 82.335481,646.912300 109.987558,647.217553 110.040911,642.202888 121.044973,642.331069 121.096332,638.337182 119.962245,638.325115 120.090219,627.130970 162.467673,627.604190 162.752194,601.709977 109.042552,601.116187 109.113255,594.470647 88.646544,594.241828 88.579152,599.744550 78.062340,599.621597 78.088063,597.203020 60.093327,597.000561 59.620817,638.937070"/>
    <poly id="103922080" type="amenity.fast_food" color="237,199,199" fill="1" layer="-1.00" shape="270.317998,482.734260 281.471833,482.964102 281.464974,483.607577 283.139319,483.647616 283.700898,455.903382 272.538048,455.684538 272.259465,469.351408 270.585117,469.311372 270.317998,482.734260"/>
    <poly id="103922080#1" type="building.yes" color="255,230,230" fill="1" layer="-1.00" shape="270.317998,482.734260 281.471833,482.964102 281.464974,483.607577 283.139319,483.647616 283.700898,455.903382 272.538048,455.684538 272.259465,469.351408 270.585117,469.311372 270.317998,482.734260"/>
    <poly id="103922082" type="building.yes" color="255,230,230" fill="1" layer="-1.00" shape="288.255469,491.657735 295.820316,491.904816 295.797391,492.392780 307.366105,492.771323 307.339868,493.569930 309.820135,493.651855 309.883009,491.910508 309.564160,491.896013 310.141510,474.315562 309.716337,474.299933 310.044310,464.317344 308.796565,463.327623 296.492647,462.919049 296.559657,460.789399 289.287171,460.545435 288.255469,491.657735"/>
    <poly id="104821443" type="building.yes" color="255,230,230" fill="1" layer="-1.00" shape="2090.648593,334.776910 2103.979925,354.805425 2106.853606,352.939313 2132.790776,393.687560 2152.037994,393.663985 2154.151291,396.527487 2160.856971,391.862593 2117.383666,324.182795 2114.746670,326.284488 2111.235172,320.798294 2090.648593,334.776910"/>
    <poly id="104821448" type="building.yes" color="255,230,230" fill="1" layer="-1.00" shape="2065.908788,338.724276 2076.475581,338.362048 2075.576165,312.687877 2065.009339,313.050105 2065.908788,338.724276"/>
    <poly id="104882642" type="building.yes" color="255,230,230" fill="1" layer="-1.00" shape="2249.223954,595.110989 2236.537563,594.850730 2236.334195,603.758384 2284.447159,604.870703 2290.596941,595.916904 2252.962813,595.162819 2249.223954,595.110989"/>
    <poly id="104882645" type="building.yes" color="255,230,230" fill="1" layer="-1.00" shape="2181.801843,585.910672 2211.451928,586.677345 2211.890386,573.267387 2196.999956,572.783464 2197.024078,572.195653 2182.266669,571.702109 2181.801843,585.910672"/>
    <poly id="104882649" type="building.yes" color="255,230,230" fill="1" layer="-1.00" shape="2073.002933,602.313636 2133.316056,603.579949 2133.407557,599.242517 2135.409706,599.286494 2135.567191,592.142561 2135.646936,588.071298 2105.463799,587.432244 2105.376054,591.425750 2095.577823,591.219313 2095.653808,587.491976 2080.008480,587.166486 2079.924246,590.838254 2074.768126,590.737802 2074.644337,596.417465 2073.129495,596.378801 2073.002933,602.313636"/>
    <poly id="105070529" type="building.yes" color="255,230,230" fill="1" layer="-1.00" shape="1828.020105,478.743377 1851.357296,479.063054 1851.267372,485.719505 1863.538455,485.885904 1863.852214,463.498163 1851.598819,463.331957 1851.566974,465.450892 1828.212025,465.131023 1828.020105,478.743377"/>
    <poly id="105070532" type="building.yes" color="255,230,230" fill="1" layer="-1.00" shape="1909.746913,478.831136 1919.608378,478.938176 1926.807608,472.869302 1926.939533,471.328430 1934.669538,471.057287 1934.626263,464.432676 1927.140658,464.229357 1927.395301,462.811870 1920.687764,456.236969 1910.593546,455.528233 1903.390341,461.963237 1903.373604,463.505359 1895.176648,463.527359 1895.231343,469.919082 1903.184008,470.360452 1903.167272,471.902574 1909.746913,478.831136"/>
    <poly id="105070536" type="building.yes" color="255,230,230" fill="1" layer="-1.00" shape="2227.739147,489.833703 2234.858695,500.862732 2251.844229,489.619170 2245.111523,478.871734 2227.739147,489.833703"/>
    <poly id="105070539" type="building.yes" color="255,230,230" fill="1" layer="-1.00" shape="1851.532555,462.088518 1864.538714,462.296178 1867.076471,308.415123 1830.201622,307.804363 1830.007985,319.940966 1853.876522,320.332973 1851.532555,462.088518"/>
    <poly id="105070542" type="building.yes" color="255,230,230" fill="1" layer="-1.00" shape="1830.076120,516.313555 1843.741219,516.217651 1844.151075,500.488379 1828.938055,500.323391 1830.076120,516.313555"/>
    <poly id="105070545" type="building.yes" color="255,230,230" fill="1" layer="-1.00" shape="2239.067032,513.136064 2248.565866,506.670873 2243.881646,499.851449 2234.391667,506.316742 2239.067032,513.136064"/>
    <poly id="105070548" type="building.yes" color="255,230,230" fill="1" layer="-1.00" shape="2141.484491,431.085966 2153.054971,431.311738 2153.146073,426.197602 2167.613643,426.477114 2168.145262,426.482900 2168.048793,431.275202 2169.705551,431.304331 2169.457093,444.361291 2172.008738,444.400161 2171.927528,448.604556 2169.367144,448.554495 2169.055274,464.994961 2171.668814,465.045601 2171.588932,469.127957 2168.966412,469.088316 2168.665048,484.563569 2159.398066,484.385035 2159.252728,492.039502 2152.847252,491.925406 2152.620115,503.839740 2152.613354,504.461027 2151.452784,504.437301 2151.406810,507.033200 2152.461057,507.055769 2152.299983,515.342521 2151.325479,515.320820 2151.281317,517.750303 2135.272227,517.454041 2135.776283,490.674453 2136.812932,490.685732 2136.848278,489.066142 2126.323145,488.873954 2126.419108,484.126030 2125.603964,484.117161 2125.811459,473.190133 2136.097384,473.379716 2136.262546,464.715755 2140.842947,464.798882 2141.484491,431.085966"/>
    <poly id="105070551" type="building.yes" color="255,230,230" fill="1" layer="-1.00" shape="2237.888080,475.752817 2237.373784,474.970514 2219.300887,486.790336 2219.822836,487.683679 2209.282643,494.570295 2201.861687,483.549103 2200.848997,482.151110 2198.994629,483.995001 2195.116016,486.194106 2192.962697,487.823924 2188.155523,486.595440 2185.377906,484.523587 2182.647981,484.582633 2182.625372,470.379861 2188.742127,466.085833 2187.460804,464.130132 2190.583643,462.166900 2192.160417,464.658414 2197.460265,461.331922 2197.599735,461.544259 2198.423058,462.429786 2204.859522,458.072676 2215.434796,474.820328 2233.713795,462.791923 2241.082897,473.690526 2237.888080,475.752817"/>
    <poly id="105070557" type="building.yes" color="255,230,230" fill="1" layer="-1.00" shape="1907.018526,369.342327 1947.296455,369.901618 1948.197618,330.976549 1907.201808,330.409469 1907.018526,369.342327"/>
    <poly id="105070558" type="building.yes" color="255,230,230" fill="1" layer="-1.00" shape="1854.766089,306.129020 1884.176967,306.980676 1885.337722,266.971050 1876.718159,266.722191 1876.915990,259.922668 1865.089525,259.583551 1864.862189,267.470133 1855.897189,267.206452 1854.766089,306.129020"/>
    <poly id="105070564" type="building.yes" color="255,230,230" fill="1" layer="-1.00" shape="2226.872245,521.424887 2237.772389,514.031811 2234.370678,509.057158 2233.388681,509.723301 2231.949462,507.621628 2228.235812,510.133195 2222.031311,514.348568 2226.872245,521.424887"/>
    <poly id="105070568" type="building.yes" color="255,230,230" fill="1" layer="-1.00" shape="2213.465888,501.828072 2222.031311,514.348568 2228.235812,510.133195 2219.679254,497.612789 2213.465888,501.828072"/>
    <poly id="105070572" type="building.yes" color="255,230,230" fill="1" layer="-1.00" shape="1872.660378,403.055525 1909.256046,404.040709 1909.640872,411.856266 1918.316458,411.828379 1918.750473,404.498825 1933.129472,404.776969 1933.108997,406.663018 1948.665092,407.076020 1948.843106,402.107074 1964.761279,402.634995 1965.080270,395.293097 1949.164613,394.532193 1949.441241,390.274443 1928.901795,389.341320 1928.636791,391.712926 1909.621278,391.617476 1909.834739,393.994275 1872.879558,393.471209 1872.660378,403.055525"/>
    <poly id="105073548" type="building.yes" color="255,230,230" fill="1" layer="-1.00" shape="795.783712,625.427108 819.993908,626.097247 820.390951,612.209723 796.180834,611.528488 795.783712,625.427108"/>
    <poly id="105073549" type="building.yes" color="255,230,230" fill="1" layer="-1.00" shape="1456.803406,608.340483 1462.119472,608.397899 1462.185378,602.295977 1480.712003,602.485005 1480.877400,587.174728 1472.593175,587.085238 1472.758916,571.741679 1457.191513,571.584630 1456.803406,608.340483"/>
    <poly id="105073551" type="building.yes" color="255,230,230" fill="1" layer="-1.00" shape="586.567179,570.493344 601.619249,584.856806 604.239400,581.800242 606.520242,583.955011 607.523971,582.900565 611.699605,586.850914 613.870343,584.388710 614.681633,585.584627 623.479735,576.569226 617.060878,569.432605 614.410815,572.799524 602.638256,561.666674 605.466548,559.033972 602.521822,555.984449 603.607786,554.697874 598.496081,549.616854 587.703854,558.666429 593.112294,564.172252 586.567179,570.493344"/>
    <poly id="105073552" type="building.yes" color="255,230,230" fill="1" layer="-1.00" shape="1366.407092,622.654540 1367.055129,596.264876 1310.380759,595.298522 1310.447372,599.804091 1261.258635,599.029744 1260.696017,606.835046 1224.578375,605.979874 1224.560568,607.632940 1205.913867,607.077028 1205.775020,619.968722 1366.407092,622.654540"/>
    <poly id="105073553" type="building.yes" color="255,230,230" fill="1" layer="-1.00" shape="980.082671,599.321897 980.537473,590.805302 916.758474,589.654334 916.822315,583.707737 907.767266,583.610530 907.787274,581.746671 903.624323,581.579933 900.213339,578.225713 900.929901,546.965792 874.763403,546.085806 874.188936,583.105906 872.053765,583.071899 871.992950,587.087881 874.783769,587.128923 874.620845,597.357387 898.850271,597.894810 898.831408,598.826645 907.025938,599.014466 907.044921,598.071537 980.082671,599.321897"/>
    <poly id="105073554" type="building.yes" color="255,230,230" fill="1" layer="-1.00" shape="1393.532647,592.123413 1414.635553,592.528726 1414.659623,591.119832 1419.567655,591.217199 1419.623460,588.510452 1430.644504,588.718204 1430.956127,572.166791 1393.932920,571.456455 1393.532647,592.123413"/>
    <poly id="105073555" type="building.yes" color="255,230,230" fill="1" layer="-1.00" shape="1113.801022,575.084119 1127.160441,575.383205 1126.813330,590.347547 1133.058881,590.492426 1133.358649,577.458223 1132.623257,577.450309 1133.075116,557.693758 1133.810390,557.712767 1133.964870,550.768531 1114.368692,550.324662 1113.801022,575.084119"/>
    <poly id="105073556" type="building.yes" color="255,230,230" fill="1" layer="-1.00" shape="807.387964,648.919015 859.907157,649.781914 860.157403,634.716673 824.471179,634.134148 824.551303,629.141955 807.718229,628.861580 807.387964,648.919015"/>
    <poly id="105073557" type="building.yes" color="255,230,230" fill="1" layer="-1.00" shape="432.504736,555.798399 447.664327,555.971377 447.692000,555.039638 451.280004,555.111243 451.339129,549.575142 447.715682,549.503157 447.757729,542.247047 442.362246,542.156141 442.270251,544.962359 438.328429,544.831501 438.316345,545.963129 432.620686,545.769163 432.504736,555.798399"/>
    <poly id="105073559" type="building.yes" color="255,230,230" fill="1" layer="-1.00" shape="1490.566641,619.612272 1504.637797,619.642260 1504.502527,626.420271 1523.366623,626.535371 1523.436318,625.825999 1531.958409,626.040165 1531.945528,623.132952 1540.476841,623.313939 1540.558801,619.830775 1540.027555,619.791745 1540.065064,617.961360 1541.934305,618.003758 1541.961441,613.854259 1540.118539,613.834337 1540.541377,590.293831 1512.399681,590.167195 1512.805403,577.222898 1508.019486,577.304328 1503.836355,573.264674 1500.170716,577.097463 1496.138871,577.098282 1495.345899,604.562664 1490.880521,604.503322 1490.566641,619.612272"/>
    <poly id="105073560" type="building.yes" color="255,230,230" fill="1" layer="-1.00" shape="1437.409033,640.097745 1445.604604,640.186245 1446.160558,599.371179 1440.102752,599.072754 1440.409830,604.279951 1438.028975,604.021233 1437.879589,617.855954 1408.648801,617.662425 1408.551677,626.659985 1413.660117,627.070192 1413.350712,633.568930 1437.474083,634.073484 1437.409033,640.097745"/>
    <poly id="105073561" type="building.yes" color="255,230,230" fill="1" layer="-1.00" shape="506.441131,562.535467 531.279900,562.445883 531.773304,537.840982 506.707891,537.573084 506.441131,562.535467"/>
    <poly id="105073563" type="building.yes" color="255,230,230" fill="1" layer="-1.00" shape="1086.672316,600.234683 1096.889338,600.222530 1097.003908,589.571907 1095.463440,589.444379 1096.484093,560.462339 1097.680213,560.475206 1097.787145,550.534625 1087.205603,550.653814 1086.672316,600.234683"/>
    <poly id="105073564" type="building.yes" color="255,230,230" fill="1" layer="-1.00" shape="844.958062,568.046145 863.225293,568.464031 863.680020,549.206820 851.906412,548.936264 851.742591,555.946972 845.240071,555.799547 844.958062,568.046145"/>
    <poly id="105073565" type="building.yes" color="255,230,230" fill="1" layer="-1.00" shape="1154.125928,576.117243 1175.335309,576.512001 1175.309009,578.131688 1185.337848,578.317339 1185.796899,553.789720 1154.558592,553.209311 1154.125928,576.117243"/>
    <poly id="105073566" type="building.yes" color="255,230,230" fill="1" layer="-1.00" shape="1868.470335,583.437430 1875.247624,583.577536 1875.725118,560.803218 1868.947811,560.663112 1868.470335,583.437430"/>
    <poly id="105073567" type="building.yes" color="255,230,230" fill="1" layer="-1.00" shape="1368.063938,625.956742 1405.612402,626.417440 1405.722814,617.009482 1368.174307,616.548784 1368.063938,625.956742"/>
    <poly id="105073568" type="building.yes" color="255,230,230" fill="1" layer="-1.00" shape="798.492408,590.149721 814.889630,590.591836 815.225589,578.268147 798.828343,577.826032 798.492408,590.149721"/>
    <poly id="105073569" type="building.yes" color="255,230,230" fill="1" layer="-1.00" shape="1677.343402,632.550516 1692.927098,632.830206 1693.038434,626.640008 1698.451592,626.731913 1698.579001,619.876145 1718.034346,620.220001 1718.740413,580.394059 1716.481196,580.358493 1716.614266,572.981289 1709.429283,572.847992 1709.295258,580.313951 1702.562148,580.185554 1702.686586,572.786066 1696.121693,572.670592 1695.990083,579.914662 1692.906992,579.859086 1692.863804,582.210908 1684.783954,582.067942 1684.517508,596.855633 1677.988075,596.740557 1677.343402,632.550516"/>
    <poly id="105073570" type="building.yes" color="255,230,230" fill="1" layer="-1.00" shape="1055.042540,596.521447 1062.519284,596.712798 1063.329212,558.474693 1064.046885,558.482410 1064.324125,550.829371 1063.252045,550.817843 1063.078746,549.628742 1056.256419,549.555385 1055.042540,596.521447"/>
    <poly id="105073571" type="building.yes" color="255,230,230" fill="1" layer="-1.00" shape="1020.962619,610.535085 1054.820911,611.365086 1053.184351,609.461224 1054.089148,591.240747 1054.816958,590.305440 1055.311288,577.295521 1053.900075,575.860100 1054.473371,555.505689 1055.797319,554.343782 1053.093884,551.119159 1052.006536,552.527715 1026.115915,551.539265 1025.409690,550.466489 1022.170592,553.383125 1023.705856,554.819873 1023.361806,575.287705 1021.449162,576.809447 1021.310481,589.712232 1022.598967,591.024276 1022.404358,609.130334 1020.962619,610.535085"/>
    <poly id="105073572" type="building.yes" color="255,230,230" fill="1" layer="-1.00" shape="453.682787,561.616769 478.344503,567.317071 479.245441,549.340633 453.945818,548.604372 453.682787,561.616769"/>
    <poly id="105073574" type="building.yes" color="255,230,230" fill="1" layer="-1.00" shape="1856.981588,654.114539 1938.730929,655.234777 1938.854055,621.860198 1932.323006,621.079162 1925.738727,619.487566 1918.688903,618.334750 1918.637598,623.060968 1912.225411,622.758354 1912.279362,617.788059 1905.630477,617.249870 1892.050620,620.120522 1858.071509,619.807321 1856.981588,654.114539"/>
    <poly id="105073575" type="building.yes" color="255,230,230" fill="1" layer="-1.00" shape="673.839948,624.353610 729.218951,625.446026 729.327381,620.287701 725.004016,620.208098 725.212010,609.891354 717.637342,609.743637 718.135694,584.728243 714.503400,584.656048 714.860627,566.196682 680.557489,565.518639 680.420630,572.507443 663.100851,572.155577 662.676229,593.610050 674.450248,593.835964 673.839948,624.353610"/>
    <poly id="105073575#1" type="shop.car" color="237,199,255" fill="1" layer="-1.00" shape="673.839948,624.353610 729.218951,625.446026 729.327381,620.287701 725.004016,620.208098 725.212010,609.891354 717.637342,609.743637 718.135694,584.728243 714.503400,584.656048 714.860627,566.196682 680.557489,565.518639 680.420630,572.507443 663.100851,572.155577 662.676229,593.610050 674.450248,593.835964 673.839948,624.353610"/>
    <poly id="105073577" type="building.yes" color="255,230,230" fill="1" layer="-1.00" shape="1224.017470,577.435722 1238.360123,577.767769 1238.604547,567.418125 1224.270857,567.075080 1224.017470,577.435722"/>
    <poly id="105073578" type="building.yes" color="255,230,230" fill="1" layer="-1.00" shape="568.426117,539.220375 568.014117,558.688856 567.004061,558.678054 566.502559,561.657425 544.355761,561.087753 544.793207,539.233978 568.426117,539.220375"/>
    <poly id="105073580" type="building.yes" color="255,230,230" fill="1" layer="-1.00" shape="1137.300403,623.703074 1172.356667,624.368914 1172.525612,615.261174 1137.478170,614.595430 1137.300403,623.703074"/>
    <poly id="105073581" type="building.yes" color="255,230,230" fill="1" layer="-1.00" shape="988.635220,600.001855 1013.113082,600.508992 1014.042310,547.026707 989.564172,546.530665 988.635220,600.001855"/>
    <poly id="105073582" type="building.yes" color="255,230,230" fill="1" layer="-1.00" shape="1871.509830,589.961399 1876.851530,590.108122 1876.998515,584.728296 1868.272837,584.489380 1868.184771,587.706182 1871.568742,587.798374 1871.509830,589.961399"/>
    <poly id="105426337" type="building.yes" color="255,230,230" fill="1" layer="-1.00" shape="374.585440,451.424698 396.467666,451.902323 396.033495,471.825483 401.588270,471.940250 401.519316,475.079584 396.894868,474.974747 396.622496,487.210346 420.533382,487.731881 420.808632,475.230016 425.654586,475.337231 426.016668,458.852953 404.515450,458.379318 404.835729,444.147012 397.075085,443.975414 397.093655,443.065768 373.802860,442.550921 373.655404,448.896061 374.638775,448.917650 374.585440,451.424698"/>
    <poly id="105426338" type="building.yes" color="255,230,230" fill="1" layer="-1.00" shape="584.540449,453.445719 592.779065,453.666987 592.880841,449.951029 609.676811,450.419191 609.719296,448.932826 613.236109,449.037026 613.408902,442.825304 609.900948,442.721199 609.944977,441.090608 584.901500,440.401084 584.540449,453.445719"/>
    <poly id="105426339" type="building.yes" color="255,230,230" fill="1" layer="-1.00" shape="1059.412250,386.260915 1059.648855,371.672642 1042.806277,371.402804 1042.560961,385.979886 1059.412250,386.260915"/>
    <poly id="105426340" type="building.yes" color="255,230,230" fill="1" layer="-1.00" shape="582.639549,492.814986 599.747321,493.120030 600.211866,482.828225 602.116815,482.848603 602.358515,471.023213 599.892880,468.744417 582.895140,468.917665 582.639549,492.814986"/>
    <poly id="105426341" type="building.yes" color="255,230,230" fill="1" layer="-1.00" shape="489.594757,478.893912 522.737079,479.603139 522.942068,461.253110 516.838068,461.121298 516.888126,458.924892 513.592587,458.845290 513.542530,461.041695 489.915331,460.500737 489.594757,478.893912"/>
    <poly id="105426342" type="building.yes" color="255,230,230" fill="1" layer="-1.00" shape="1106.578733,449.924792 1107.363625,451.098283 1108.479690,451.964657 1109.812697,452.433920 1111.221360,452.460171 1112.563916,452.041883 1113.715723,451.233194 1114.543282,450.088147 1139.739267,450.603367 1140.463420,415.426753 1142.465611,415.470492 1143.486039,365.939256 1101.075906,365.072409 1100.047615,415.358064 1086.191525,415.075879 1085.801894,434.000918 1099.657952,434.283103 1099.340607,449.780355 1106.578733,449.924792"/>
    <poly id="105426342#1" type="shop.car" color="237,199,255" fill="1" layer="-1.00" shape="1106.578733,449.924792 1107.363625,451.098283 1108.479690,451.964657 1109.812697,452.433920 1111.221360,452.460171 1112.563916,452.041883 1113.715723,451.233194 1114.543282,450.088147 1139.739267,450.603367 1140.463420,415.426753 1142.465611,415.470492 1143.486039,365.939256 1101.075906,365.072409 1100.047615,415.358064 1086.191525,415.075879 1085.801894,434.000918 1099.657952,434.283103 1099.340607,449.780355 1106.578733,449.924792"/>
    <poly id="105426343" type="building.yes" color="255,230,230" fill="1" layer="-1.00" shape="1394.868769,511.838296 1425.409919,512.167966 1425.611048,486.971816 1427.568562,487.048428 1432.008639,482.891097 1432.101797,481.649385 1395.201993,480.962579 1394.868769,511.838296"/>
    <poly id="105426344" type="building.yes" color="255,230,230" fill="1" layer="-1.00" shape="1005.664219,380.024397 1021.822982,380.431055 1022.463481,354.640492 1006.313529,354.233928 1005.664219,380.024397"/>
    <poly id="105426345" type="building.yes" color="255,230,230" fill="1" layer="-1.00" shape="1187.571589,491.018346 1199.474343,490.824744 1211.195555,472.931585 1211.480057,457.212063 1208.237439,457.154948 1208.549912,439.660418 1188.482802,439.311172 1187.571589,491.018346"/>
    <poly id="105426346" type="building.yes" color="255,230,230" fill="1" layer="-1.00" shape="692.388609,499.182285 742.590631,500.541103 742.719110,495.993256 747.910364,496.126549 748.026419,491.911439 742.409991,491.762495 742.779728,477.930159 713.448720,477.127735 714.002990,456.817507 693.557082,456.265667 692.388609,499.182285"/>
    <poly id="105426347" type="building.yes" color="255,230,230" fill="1" layer="-1.00" shape="1422.443054,407.769844 1444.540698,408.008425 1445.229945,377.003405 1492.636553,377.992551 1492.896279,376.097993 1498.602349,376.159641 1497.447273,405.972390 1500.890103,406.364651 1500.375804,409.676707 1518.561021,409.518150 1519.809367,360.422091 1517.070313,360.503447 1517.452783,357.911188 1499.391499,358.071089 1499.565520,364.109028 1493.384818,363.687189 1493.452659,357.407758 1446.633110,357.024118 1447.052749,362.476635 1441.104924,362.645421 1440.818191,356.373259 1422.878563,355.935472 1422.443054,407.769844"/>
    <poly id="105426348" type="building.yes" color="255,230,230" fill="1" layer="-1.00" shape="1526.744290,475.537222 1526.982494,449.398333 1525.147816,449.433983 1525.186477,442.577260 1483.479426,442.281943 1479.538979,443.659625 1478.392726,448.052234 1470.639860,447.979585 1470.504732,455.567581 1468.660837,455.636431 1468.600442,461.228009 1470.416437,461.280911 1470.241082,468.491218 1471.242988,470.898711 1472.179291,471.996202 1473.701210,473.022350 1474.602200,473.287283 1483.312069,473.359179 1483.281524,474.546088 1509.134424,474.947467 1509.111308,475.446523 1526.744290,475.537222"/>
    <poly id="105426349" type="building.yes" color="255,230,230" fill="1" layer="-1.00" shape="534.060754,483.840665 546.832809,484.387742 547.151742,476.934868 534.388535,476.387886 534.060754,483.840665"/>
    <poly id="105426350" type="building.yes" color="255,230,230" fill="1" layer="-1.00" shape="618.287997,492.841274 647.992503,493.514215 647.960798,496.476418 656.633641,496.691302 657.230144,451.726961 633.949178,451.122729 633.642871,457.388501 618.791779,457.351640 618.287997,492.841274"/>
    <poly id="105426351" type="building.yes" color="255,230,230" fill="1" layer="-1.00" shape="1009.933332,491.537443 1048.314637,492.060949 1048.495389,479.369435 1056.602150,479.489881 1056.876978,459.698144 1049.035887,459.591650 1049.075520,456.729391 1045.602416,456.680957 1045.562784,459.543216 1045.057749,459.537786 1045.070988,458.306308 1043.050848,458.284591 1043.037729,459.504975 1039.201356,459.452638 1039.223215,458.243444 1035.360261,458.190823 1035.338401,459.400017 1006.818179,459.004727 1006.781659,461.578532 1011.645702,461.652993 1011.591774,465.846580 1009.119883,465.808920 1009.018826,473.563713 1011.481974,473.590183 1011.375869,480.989860 1010.082275,480.975958 1009.933332,491.537443"/>
    <poly id="105426352" type="building.yes" color="255,230,230" fill="1" layer="-1.00" shape="1347.341214,477.772123 1355.900452,477.842261 1355.852481,487.217603 1359.059528,487.285487 1359.209697,493.079058 1378.657784,493.299985 1378.780500,487.675793 1387.250288,487.822668 1388.183187,412.870241 1372.198817,412.731051 1372.194764,418.855829 1356.885106,418.601895 1355.969217,459.967845 1347.561303,459.832765 1347.341214,477.772123"/>
    <poly id="105426353" type="building.yes" color="255,230,230" fill="1" layer="-1.00" shape="1088.500569,352.809570 1157.529237,353.785289 1157.999509,343.848620 1089.668224,343.113410 1089.776995,344.534827 1088.350474,344.519484 1088.500569,352.809570"/>