<?xml version="1.0" encoding="UTF-8"?>

<!-- generated on Tue Jul 24 10:28:02 2018 by Eclipse SUMO duarouter Version v0_32_0+2356-ad68282
<configuration xmlns:xsi="http://www.w3.org/2001/XMLSchema-instance" xsi:noNamespaceSchemaLocation="http://sumo.dlr.de/xsd/duarouterConfiguration.xsd">

    <input>
        <net-file value="osm.net.xml"/>
        <route-files value="osm.passenger.trips.xml"/>
    </input>

    <output>
        <output-file value="osm.passenger.rou.xml"/>
        <alternatives-output value="osm.passenger.rou.alt.xml"/>
    </output>

    <processing>
        <ignore-errors value="true"/>
    </processing>

    <time>
        <begin value="0"/>
        <end value="3600.0"/>
    </time>

    <report>
        <no-warnings value="true"/>
        <no-step-log value="true"/>
    </report>

</configuration>
-->

<routes xmlns:xsi="http://www.w3.org/2001/XMLSchema-instance" xsi:noNamespaceSchemaLocation="http://sumo.dlr.de/xsd/routes_file.xsd">
    <vType id="veh_passenger" speedFactor="normc(1.00,0.10,0.20,2.00)" vClass="passenger"/>
    <vehicle id="veh0" type="veh_passenger" depart="0.00" departLane="best">
        <route edges="415849045#6 -415849045#6 -415849045#4 -8941523#1 -8941523#0 8949672#3 -8957238#2 -8957238#1 -415850763 -415850758#2 -415850758#1 -415850758#0 -415850751 -415850759#2 -415850759#1 -415850759#0 -415850747 -415849055 -415849080 -415849077 -415849082#1 -415849059 -415849091#3 -415849091#1 -415849091#0 -415849078 -415849084 -415849076 -415849079 47653723#0 47653723#1 47653723#2 415849087#0 415849087#1 415849092 415849070#0 415849070#1 415849070#2 -415849106#1 -415849104#0 -415849100 -415849101 -258707678#9 -258707678#8 -258707678#7 -258707678#6 -258707678#5"/>
    </vehicle>
    <vehicle id="veh1" type="veh_passenger" depart="0.80" departLane="best">
        <route edges="-8932468#2 -8932468#1 -8932468#0 8969906#1 8969906#2 8969906#3 -8967847#0 8960968#2 -517223288 -50876127#10 8930166#0 -8930166#0"/>
    </vehicle>
    <vehicle id="veh2" type="veh_passenger" depart="1.60" departLane="best">
        <route edges="428045956#4 -415849045#7 -415849045#6 -415849045#4 -415849045#2 -415849045#0 -415849049#1 -415849047#1 -415849052 8968757#0 8968757#1 8968757#2 8968757#3 51062011"/>
    </vehicle>
    <vehicle id="veh3" type="veh_passenger" depart="2.40" departLane="best">
        <route edges="8950901#3 -8950901#3 -8950901#2 -8950901#1 -8950901#0 415850754 -415849055 -415849080 -415849077 -415849082#1 -415849059 -415849091#3 -415849091#1 -415849091#0 -415849078 -415849084 -415849076 -415849079 47653723#0 47653723#1 47653723#2 415849087#0 415849087#1 415849092 415849070#0 415849070#1 415849070#2 415849088#0 415849088#1 415849089#1 415849089#2 415849075#1 415849065 415849086#1 465132793 415849057#1 415849085#0 415849085#1 -415849081"/>
    </vehicle>
    <vehicle id="veh4" type="veh_passenger" depart="3.20" departLane="best">
        <route edges="-8953791 8931507#3 8957238#5 8957238#6 -8942286#12 -8942286#11 -8942286#10 -8942286#9 -8942286#8 -8942286#7 -8942286#6 -8942286#5 -8942286#4 -8942286#3 -8942286#2 -8942286#1 -8942286#0 -8950901#6 -8950901#5 -269869578#4 -269869578#3 -269869578#2"/>
    </vehicle>
    <vehicle id="veh5" type="veh_passenger" depart="3.99" departLane="best">
        <route edges="-50980310#3 -50980310#2 -50980310#1 -50980310#0 -8959457#2 -8959457#1 415855080#1 377585177#0 377585177#2 377585177#3"/>
    </vehicle>
    <vehicle id="veh6" type="veh_passenger" depart="4.79" departLane="best">
        <route edges="-24287075#2 24287075#2 24287075#3 -78135426#2 -78135426#1 -78135426#0 -417711191 -417711181 -28485126 -517226537#1 -517226537#0 -425174925#1 -425174925#0 -8960968#9 -8960968#7 -8960968#6 -8960968#5 -8960968#4 -8960968#3 -8960968#2 -8960968#1 -8960968#0 417706879 -51062010#2 -51062010#1"/>
    </vehicle>
    <vehicle id="veh7" type="veh_passenger" depart="5.59" departLane="best">
        <route edges="415849078 415849091#0 415849091#1 415849091#3 415849059 415849082#1 415849077 415849080 415849055 415850747 415850759#0 415850759#1 415850759#2 415850751 415850758#0 415850758#1 415850758#2 415850763 415850748 415850757 415850761#0 415850762#0 415850765#0 415850765#1 415850765#2 415850765#3 415850765#4 415850755 8962415#0 8962415#1 8962415#2 415850756 415850764#0 415850764#1 415850764#2 415850742#0 415850742#1 415850742#2"/>
    </vehicle>
    <vehicle id="veh8" type="veh_passenger" depart="6.39" departLane="best">
        <route edges="8929983#1 -8929983#1 -8929983#0 415849077 415849080 415849055 -415850754 -415850749 -415850746 -417711162 -28485159#5 -28485159#4 -28485159#3 -28485159#2 -28485159#1 -28485159#0 -25927364#2 -25927364#1 -25927364#0 -159230295#7 -159230295#6 -159230295#5 -159230295#4"/>
    </vehicle>
    <vehicle id="veh9" type="veh_passenger" depart="7.19" departLane="best">
        <route edges="8928697#2 -8928697#2 -8928697#1 -8928697#0 -415849079 47653723#0 47653723#1 47653723#2 415849087#0 415849087#1 415849092 415849070#0 415849070#1 415849070#2 415849088#0 415849088#1 415849089#1 415849089#2 415849075#1 415849065 415849086#1 465132793 415849057#1 415849085#0 415849085#1 60726012#1"/>
    </vehicle>
    <vehicle id="veh10" type="veh_passenger" depart="7.99" departLane="best">
        <route edges="-8940584 8949672#2 8949672#3 -8957238#2 -8957238#1 -8957238#0 8929983#6 -8931118 -8968757#3 8941453#0 8941453#1 8941453#2 8939405#0 8939405#1 516441651#1 420354590 -420354590 516441650 -448447940#6"/>
    </vehicle>
    <vehicle id="veh11" type="veh_passenger" depart="8.79" departLane="best">
        <route edges="8963922#0 8963922#1 8963922#2 8963922#3 -8928697#0 415849076 415849084 415849078 415849091#0 415849091#1 415849091#3 415849059 415849082#1 415849077 415849080 415849055 -415850754 -415850749 -415850746 -417711162 -417711159 -417711163#1 -417711163#0 -417711165 -417711181 -28485126 -517226537#1 -517226537#0 -425174925#1 -425174925#0 -8938875#8 -8938875#7 -8938875#6 -8938875#5 -8938875#4 8936718#15 8936718#16 8936718#17 8936718#18 8936718#19 50980298#0 -8958782#2"/>
    </vehicle>
    <vehicle id="veh12" type="veh_passenger" depart="9.59" departLane="best">
        <route edges="-415849085#0 -415849057#1 -415849057#0 -415849086#1 -415849086#0 -415849075#1 -415849075#0 -415849089#1 -415849089#0 -415849088#0 415849098 415849093#0 415849093#1 415849093#2 415849093#3 415849103#0 28485230 28485229#1 28485229#2 415849107 415849096 -415849096"/>
    </vehicle>
    <vehicle id="veh13" type="veh_passenger" depart="10.38" departLane="best">
        <route edges="8938875#4 8938875#5 8938875#6 8938875#7 8938875#8 -8960968#9 8944909#0 8944909#1 8944909#2 -8964914 50877464#0 50877464#1 50877464#2 50877464#3 -50876132#2 -50876132#1 -50876132#0 517223292#3 517223292#4 517223292#6 50980317#1 50980317#2 415849087#0 415849087#1 415849092 415849070#0 415849070#1 415849070#2 415849098 415849093#0 415849093#1 415849093#2 415849093#3 415849103#0 28485230 28485229#1 28485229#2 415849107 415849096 415849099 -519539642 421572323"/>
    </vehicle>
    <vehicle id="veh14" type="veh_passenger" depart="11.18" departLane="best">
        <route edges="8929558#0 -8929558#0 -50980309#0 50876127#1 50876127#2 50876127#4 50876127#5 50876127#6 50876127#7 50876127#8 50876127#10 517223288 -8960968#2 8967847#0 -8969906#3 -8969906#2 -8969906#1 8932468#0 8932468#1 8932468#2"/>
    </vehicle>
    <vehicle id="veh15" type="veh_passenger" depart="11.98" departLane="best">
        <route edges="-8970151#0 8958822#2 -159230296#0 -28485159#5 -28485159#4 -28485159#3 -28485159#2 -28485159#1 -28485159#0 -25927364#2 -25927364#1 -25927364#0 -159230295#7 50876137 -8944779#1 -8944779#0 50876133#1 -50876128#6 -50876128#5 8967661"/>
    </vehicle>
    <vehicle id="veh16" type="veh_passenger" depart="12.78" departLane="best">
        <route edges="-8946653#3 8946655 517223292#1 25927364#0 25927364#1 25927364#2 25927364#3 28485159#1 28485159#2 28485159#3 28485159#4 28485159#5 417711162 415850746 415850749 415850754 415850747 415850759#0 415850759#1 415850759#2 415850751 415850758#0 415850758#1 415850758#2 415850763 415850748 415850757 415850761#0 415850762#0 415850765#0 415850765#1 415850765#2 415850765#3 415850765#4 415850755"/>
    </vehicle>
    <vehicle id="veh17" type="veh_passenger" depart="13.58" departLane="best">
        <route edges="8936718#0 8936718#1 8936718#2 417706903 417706950#0 417706950#1 417706950#2 417706950#3 417706846 417706879 258707678#1 258707678#2 258707678#3 258707678#4 258707678#5 258707678#6 258707678#7 258707678#8 258707678#9 415849101 415849100 415849105 415849106#1 415849098 415849093#0 415849093#1 415849093#2 415849093#3 415849103#0 28485230 28485229#1 28485229#2 415849107 415849096 415849099 516442621 415849109#1 415849109#2 415849109#3 415849109#4 415849109#5 519226933#0 519226933#1 519226933#2 519226933#3 415849097 415849046 28485247#0 28485247#1 28485247#2 28485247#3 28485247#4 28485247#5 28485247#6 28485247#7 28485247#8 28485247#9 28485247#10 28485247#11 28485247#12 415849048#0 415849048#1 415849052 415849047#0 415849049#0 415849045#0 46933996"/>
    </vehicle>
    <vehicle id="veh18" type="veh_passenger" depart="14.38" departLane="best">
        <route edges="417044466#6 -417044466#6 -417044466#5 -417044466#4 -417044466#3 -417044466#2 -417044466#1 -417044466#0 -415849055 -415849080 -415849077 -415849082#1 -415849059 -415849091#3 -415849091#1 -415849091#0 -415849078 -415849084 -415849076 -415849079 47653723#0 47653723#1 47653723#2 415849087#0 415849087#1 415849092 415849070#0 415849070#1 415849070#2 415849098 415849093#0 415849093#1 415849093#2 415849093#3 415849103#0 28485230 28485229#1 -28485229#1"/>
    </vehicle>
    <vehicle id="veh19" type="veh_passenger" depart="15.18" departLane="best">
        <route edges="-51062010#1 51062010#1 51062010#2 258707678#1 258707678#2 258707678#3 258707678#4 258707678#5 258707678#6 258707678#7 258707678#8 258707678#9 415849101 415849100 415849105 415849106#1 -415849070#2 -415849070#1 -415849070#0 -415849092 -415849087#1 -415849087#0 -47653723#2 -47653723#1 -47653723#0 28485223 415849076 415849084 415849078 -8966673#4 -8947165#1 -8947165#0"/>
    </vehicle>
    <vehicle id="veh20" type="veh_passenger" depart="15.98" departLane="best">
        <route edges="-415849046 -415849097 -519226933#3 -519226933#2 -519226933#1 -519226933#0 -415849109#5 -415849109#4 -415849109#3 -415849109#2 -415849109#1 -415849109#0 -415849099 -415849096 -415849107 -28485229#2 -28485229#1 -28485229#0 -415849103#0 -415849093#3 -415849093#2 -415849093#1 -415849093#0 -415849098 -415849106#1 -415849104#0 -415849100 -415849101 -258707678#9 -258707678#8 -50876130#6 -50876130#5 -50876130#4 -50876130#3 -8933892#2"/>
    </vehicle>
    <vehicle id="veh21" type="veh_passenger" depart="16.77" departLane="best">
        <route edges="-415849096 415849096 415849099 516442621 415849109#1 415849109#2 415849109#3 415849109#4 415849109#5 519226933#0 519226933#1 519226933#2 519226933#3 415849097 -415849050 -415849051#2 -415849051#1 -415849051#0 -28485246 -534658218#3 -534658218#2 -8943215"/>
    </vehicle>
    <vehicle id="veh23" type="veh_passenger" depart="18.37" departLane="best">
        <route edges="-8945150 8945150 517223292#3 517223292#4 517223292#6 50980317#1 50980317#2 415849087#0 415849087#1 415849092 415849070#0 415849070#1 415849070#2 415849088#0 415849088#1 415849089#1 415849089#2 415849075#1 415849065 415849086#1 465132793 415849057#1 8962997#0 8962997#1 8962997#2 8962997#3 8962997#4 8956801#0 8956801#1 8956801#2 -534658218#3 -534658218#2 -534658218#1 -534658218#0"/>
    </vehicle>
    <vehicle id="veh24" type="veh_passenger" depart="19.17" departLane="best">
        <route edges="-8931199#0 -269869578#1 -269869578#0 -78135426#2 -78135426#1 -78135426#0 -417711191 -417711181 -28485126 -517226537#1 -517226537#0 -425174925#1 -425174925#0 -8938875#8 -8938875#7 -8938875#6 -8938875#5 8962899#1 8962899#2 8962899#3"/>
    </vehicle>
    <vehicle id="veh25" type="veh_passenger" depart="19.97" departLane="best">
        <route edges="415849070#2 415849098 415849093#0 415849093#1 415849093#2 415849093#3 415849103#0 28485230 28485229#1 28485229#2 415849107 415849096 415849099 516442621 415849109#1 415849109#2 415849109#3 415849109#4 415849109#5 519226933#0 519226933#1 519226933#2 519226933#3 415849097 415849046 28485247#0 28485247#1 28485247#2 28485247#3 28485247#4 28485247#5 8949263#0 8956480#1 8956478 415850755 8962415#0 8962415#1 8962415#2 415850756 415850764#0 415850764#1 415850764#2 28485403 8934153#0 8934153#1 8934153#2 8934153#3 8934153#4 8934153#5 428045955#0 428045955#1 428045955#2"/>
    </vehicle>
    <vehicle id="veh26" type="veh_passenger" depart="20.77" departLane="best">
        <route edges="-46933997 -45530319#1 -8941523#1 -8941523#0 8949672#3 -8957238#2 -8957238#1 -415850763 -415850758#2 -415850758#1 -415850758#0 -415850751 -415850759#2 -415850759#1 -415850759#0 -415850747 -415850754 -415850749 -415850746 -417711162 -28485159#5 -28485159#4 -28485159#3 -28485159#2 -28485159#1 -28485159#0 -25927364#2 -25927364#1 -25927364#0 -517223292#1 -517223292#0 -8960968#2 8967847#0 -8969906#3 -8969906#2 -8969906#1 8932468#0 8932468#1 8932468#2"/>
    </vehicle>
    <vehicle id="veh27" type="veh_passenger" depart="21.57" departLane="best">
        <route edges="-428045956#3 428045956#3 428045956#4 -415849045#7 -415849045#6 -415849045#4 -8941523#1 -8941523#0 8949672#3 -8957238#2 -8957238#1 -415850763 -415850758#2 -415850758#1 -415850758#0 -415850751 -415850759#2 -415850759#1 -415850759#0 -415850747 -415850754 -415850749 -415850746 -417711162 -28485159#5 -28485159#4 -28485159#3 -28485159#2 -28485159#1 -28485159#0 -50877464#1 8938391 -8965856#0"/>
    </vehicle>
    <vehicle id="veh28" type="veh_passenger" depart="22.37" departLane="best">
        <route edges="8968919#2 50876131#1 50876131#2 -50876130#4 50876130#4"/>
    </vehicle>
    <vehicle id="veh29" type="veh_passenger" depart="23.16" departLane="best">
        <route edges="236036389#0 236036389#1 236036392 236036390#2 333016923#5 333016923#6 333016923#7 -8934153#5 -8934153#4 -8934153#3 -8934153#2 -8934153#1 -8934153#0 -28485403 -415850764#2 -415850764#1 -415850764#0 -415850756 -8962415#2 -8962415#1 -8962415#0 -415850755 -415850765#4 -415850765#3 -415850765#2 -415850765#1 -415850765#0 -415850762#1 -415849047#1 -415849052 8968757#0 8968757#1 8968757#2 8941453#0 8941453#1 8941453#2 8939405#0 8939405#1 516441651#1"/>
    </vehicle>
    <vehicle id="veh30" type="veh_passenger" depart="23.96" departLane="best">
        <route edges="8938010#0 -8938010#0 -417711191 417711165 417711163#0 417711163#1 417711159 417711162 415850746 415850749 8950901#0 8950901#1 8950901#2 8950901#3 8937168"/>
    </vehicle>
    <vehicle id="veh31" type="veh_passenger" depart="24.76" departLane="best">
        <route edges="-51062011 8931118 -8929983#6 8957238#0 8957238#1 8957238#2 8957238#4 8957238#5 8957238#6 -8942286#12 -8942286#11 8967893#0 8967893#1 -271049179#1 -271049179#0"/>
    </vehicle>
    <vehicle id="veh32" type="veh_passenger" depart="25.56" departLane="best">
        <route edges="-8936718#8 -8936718#7 -8936718#6 -8936718#5 -8965218#2 -8965218#1 -8965218#0 -8960197#1 -8960197#0 -417706955#1 -417706955#0 -417706924#1 -417706870 -417706888 27925138#0 -8942111#0"/>
    </vehicle>
    <vehicle id="veh33" type="veh_passenger" depart="26.36" departLane="best">
        <route edges="-50980306#1 50980306#1 50980306#2 -8936718#19 -8936718#18 -8936718#17 -8936718#16 -8936718#15 8938875#4 8938875#5 8938875#6 8938875#7 8938875#8 -8960968#9 8944909#0 8944909#1 8944909#2 -8964914 50877464#0 50877464#1 50877464#2 50877464#3 -50876132#2 -50876132#1 -50876132#0 517223292#3 517223292#4 517223292#6 50980317#1 50980317#2 415849087#0 415849087#1 415849092 415849070#0 415849070#1 415849070#2 415849088#0 415849088#1 415849089#1 415849089#2 415849075#1 415849065 415849086#1 465132793 415849057#1 8962997#0 8962997#1 8962997#2 8962997#3 8962997#4 8962997#5 8962997#6 8962997#7"/>
    </vehicle>
    <vehicle id="veh34" type="veh_passenger" depart="27.16" departLane="best">
        <route edges="8946750 8947165#1 8966673#4 415849091#0 415849091#1 415849091#3 415849059 415849082#1 415849077 415849080 415849055 415850747 415850759#0 415850759#1 415850759#2 415850751 415850758#0 415850758#1 415850758#2 415850763 415850748 415850757 415850761#0 415850762#0 415850765#0 415850765#1 415850765#2 415850765#3 415850765#4 -8956478"/>
    </vehicle>
    <vehicle id="veh35" type="veh_passenger" depart="27.96" departLane="best">
        <route edges="415849089#1 415849089#2 415849075#1 415849065 415849086#1 465132793 415849057#1 8960917#0 8960917#1 -50876130#0 8968669#0 -8968669#0"/>
    </vehicle>
    <vehicle id="veh36" type="veh_passenger" depart="28.76" departLane="best">
        <route edges="8958429 -8960917#1 -8960917#0 -415849057#1 -415849057#0 -415849086#1 -415849086#0 -415849075#1 -415849075#0 -415849089#1 -415849089#0 -415849088#0 -415849070#2 -415849070#1 -415849070#0 -415849092 -415849087#1 -415849087#0 -47653723#2 -47653723#1 -47653723#0 28485223 415849076 415849084 415849078 415849091#0 415849091#1 415849091#3 415849059 415849082#1 415849077 415849080 415849055 415849056 417044466#1 417044466#2 417044466#3 417044466#4 275259449"/>
    </vehicle>
    <vehicle id="veh37" type="veh_passenger" depart="29.55" departLane="best">
        <route edges="-8930166#3 -8930166#2 -8930166#1 -8930166#0 -50876127#8 -50876127#7 -50876127#6 -8936718#9 -8936718#8 -8936718#7 -8936718#6 -8936718#5 -8936718#4 -8936718#3 -8936718#2"/>
    </vehicle>
    <vehicle id="veh38" type="veh_passenger" depart="30.35" departLane="best">
        <route edges="236036390#0 236036390#1 236036390#2 333016923#5 333016923#6 333016923#7 428045956#0 428045956#1 428045956#2 428045956#3 428045956#4 -415849045#7 -415849045#6 -415849045#4 -8941523#1"/>
    </vehicle>
    <vehicle id="veh39" type="veh_passenger" depart="31.15" departLane="best">
        <route edges="271049179#3 8942286#10 8942286#11 8942286#12 -8957238#6 -8957238#5 8957238#5"/>
    </vehicle>
    <vehicle id="veh40" type="veh_passenger" depart="31.95" departLane="best">
        <route edges="8970151#1 -8970151#1 -8970151#0 8958822#2 -159230296#0 417711162 415850746 415850749 415850754 415850747 415850759#0 415850759#1 415850759#2 415850751 415850758#0 415850758#1 415850758#2 415850763 415850748 415850757 415850761#0 -415849047#1 -415849052 -415849048#1 -415849048#0 415849048#0"/>
    </vehicle>
    <vehicle id="veh41" type="veh_passenger" depart="32.75" departLane="best">
        <route edges="-415849081 -415849085#0 -415849057#1 -415849057#0 -415849086#1 -415849086#0 -415849075#1 -415849075#0 -415849089#1 -415849089#0 -415849088#0 415849098 415849093#0 415849093#1 415849093#2 415849093#3 415849103#0 28485230 28485229#1 28485229#2 415849107 415849096 415849099 516442621 415849109#1 415849109#2 415849109#3 415849109#4 415849109#5 519226933#0 519226933#1 519226933#2 519226933#3 415849097 415849046 28485247#0 -28485247#0"/>
    </vehicle>
    <vehicle id="veh42" type="veh_passenger" depart="33.55" departLane="best">
        <route edges="-415849109#3 415849109#3 415849109#4 415849109#5 519226933#0 519226933#1 519226933#2 519226933#3 415849097 415849094 415849111#0 415849111#1 415849111#2 -47472517#1 47472517#1"/>
    </vehicle>
    <vehicle id="veh43" type="veh_passenger" depart="34.35" departLane="best">
        <route edges="534658218#0 534658218#1 534658218#2 534658218#3 -8956801#2 -8956801#1 -8956801#0 -8962997#4 -8962997#3 -8962997#2 -8962997#1 -8962997#0 -415849057#1 -415849057#0 -415849086#1 -415849086#0 -415849075#1 -415849075#0 -415849089#1 -415849089#0 -415849088#0 -415849070#2 -415849070#1 -415849070#0 -415849092 -415849087#1 -415849087#0 -47653723#2 -47653723#1 -47653723#0 28485223 415849076 415849084 415849078 415849091#0 415849091#1 415849091#3 415849059 415849082#1 415849077 415849080 415849055 -415850754 -415850749 -415850746 -417711162 159230296#0 159230296#1"/>
    </vehicle>
    <vehicle id="veh44" type="veh_passenger" depart="35.15" departLane="best">
        <route edges="-287411807#1 -287558712#0 -377585177#4 -377585177#3 -377585177#2 -377585177#1 415855076 415855079#0 415855079#1 415855081#1 415855081#2 8933012#1 50876127#1 50876127#2 50876127#4 50876127#5 50876127#6 50876127#7 50876127#8 50876127#10 517223288 517223292#0 517223292#1 25927364#0 25927364#1 25927364#2 25927364#3 28485159#1 28485159#2 28485159#3 28485159#4 28485159#5 417711162 415850746 415850749 415850754 415850747 415850759#0 415850759#1 415850759#2 415850751 415850758#0 415850758#1 415850758#2 415850763 8957238#1 8957238#2 -8949672#3 8941523#0 8941523#1 415849045#4 415849045#6 415849045#7 -428045956#4 -8966417#1 -8966417#0"/>
    </vehicle>
    <vehicle id="veh45" type="veh_passenger" depart="35.94" departLane="best">
        <route edges="8970002 8946196#1 -8955198#1 8958196#0 415849051#1 415849051#2 415849050 -415849097 -519226933#3 -519226933#2 -519226933#1 -519226933#0 -415849109#5 -415849109#4 -415849109#3 -415849109#2 -415849109#1 -415849109#0 -415849099 -415849096 415849096"/>
    </vehicle>
    <vehicle id="veh46" type="veh_passenger" depart="36.74" departLane="best">
        <route edges="8966417#0 8966417#1 428045956#4 -415849045#7 -415849045#6 8931507#0 8931507#1 8931507#2 8931507#3 8957238#5 8957238#6 -8942286#12 -8942286#11 -8942286#10 -8942286#9 -8942286#8 -8942286#7 -8942286#6 -8942286#5 -8942286#4 -8942286#3 -8942286#2 -8942286#1 -8942286#0 -8950901#6 -8950901#5 -8950901#4 -8950901#3 8950901#3"/>
    </vehicle>
    <vehicle id="veh47" type="veh_passenger" depart="37.54" departLane="best">
        <route edges="-236036390#2 236036390#2 333016923#5 333016923#6 333016923#7 -8934153#5 -8934153#4 -8934153#3 -8934153#2 -8934153#1 -8934153#0 -28485403 -415850764#2 -415850764#1 -415850764#0 -415850756 -8962415#2 -8962415#1 -8962415#0 -415850755 -415850765#4 -415850765#3 -415850765#2 -415850765#1 -415850765#0 -415850762#1 -415850761#1 -415850757 -415850748 -415850763 -415850758#2 -415850758#1 -415850758#0 -415850751 -415850759#2 -415850759#1 -415850759#0 -415850747 -415850754 -415850749 -415850746 -417711162 -28485159#5 -28485159#4 -28485159#3 -28485159#2 -28485159#1 -28485159#0 -50877464#1 -50877464#0 8964914 -8944909#2 -8944909#1 -8944909#0 -8960968#7 -8937886#1 8930166#3"/>
    </vehicle>
    <vehicle id="veh48" type="veh_passenger" depart="38.34" departLane="best">
        <route edges="415850757 415850761#0 -415849047#1 -415849052 -415849048#1 -415849048#0 -28485247#12 -28485247#11 -28485247#10 -28485247#9 -28485247#8 -28485247#7 -28485247#6 -28485247#5 -28485247#4 -28485247#3 -28485247#2 -28485247#1 -28485247#0 -415849046 -415849097 -519226933#3 -519226933#2 -519226933#1 -519226933#0 -415849109#5 -415849109#4 -415849109#3 -415849109#2 -415849109#1 415849109#1"/>
    </vehicle>
    <vehicle id="veh49" type="veh_passenger" depart="39.14" departLane="best">
        <route edges="-8931199#0 -8949354 8931199#1 -8970151#3 -8970151#2 -8970151#1 -8970151#0 8958822#2 -159230296#0 417711162 415850746 415850749 415850754 -415849055 -415849080 -415849077 -415849082#1 -415849059 -415849091#3 -415849091#1 -415849091#0 -415849078 -415849084 -415849076 -415849079 47653723#0 47653723#1 47653723#2 415849087#0 415849087#1 415849092 415849070#0 415849070#1 415849070#2 -415849106#1 -415849104#0 -415849100 -415849101 -258707678#9 -258707678#8 -50876130#6 50876130#6"/>
    </vehicle>
    <vehicle id="veh50" type="veh_passenger" depart="39.94" departLane="best">
        <route edges="-415849110#1 -415849110#0 -415849102 -415849095 -415849111#5 -415849111#4 -415849111#3 -415849111#2 -415849111#1 -415849111#0 -415849094 -415849097 -519226933#3 -519226933#2 -519226933#1 -519226933#0 -415849109#5 -415849109#4 -415849109#3 -415849109#2 -415849109#1 -415849109#0 -415849099 -415849096 -415849107 -28485229#2 -28485229#1 -28485229#0 -415849103#0 -415849093#3 -415849093#2 -415849093#1 -415849093#0 -415849098 -415849070#2 -415849070#1 -415849070#0 -415849092 -415849087#1 -415849087#0 -47653723#2 -47653723#1 -47653723#0 28485223 415849076 415849084 415849078 415849091#0 415849091#1 415849091#3 415849059 415849082#1 415849077 415849080 415849055 415849056 417044466#1 417044466#2 241679660#0 241679659"/>
    </vehicle>
    <vehicle id="veh51" type="veh_passenger" depart="40.74" departLane="best">
        <route edges="-8958656#8 -8958656#6 -8958656#4 -8936996#3 -8936996#2 -8936996#1 415855089#1 415855089#1-AddedOffRampEdge 415855095#1 417706888 417706870 417706924#0 417706955#0 417706955#1 417706955#2 417706955#3 417706857 417706903 417706950#0 417706950#1 417706950#2 417706950#3 417706846 417706879 -51062010#2 -51062010#1 8964054"/>
    </vehicle>
    <vehicle id="veh52" type="veh_passenger" depart="41.54" departLane="best">
        <route edges="8946655 517223292#1 517223292#2 517223292#3 517223292#4 517223292#6 50980317#1 50980317#2 415849087#0 415849087#1 415849092 415849070#0 415849070#1 415849070#2 415849088#0 415849088#1 415849089#1 415849089#2 415849075#1 415849065 415849086#1 465132793 415849057#1 8962997#0 8962997#1 8962997#2 8962997#3 8962997#4 8956801#0 -8938683#1 -8941929"/>
    </vehicle>
    <vehicle id="veh53" type="veh_passenger" depart="42.33" departLane="best">
        <route edges="-8964929#0 534658218#2 534658218#3 -8956801#2 -8956801#1 -8956801#0 -8962997#4 -8962997#3 -8962997#2 -8962997#1 -8962997#0 -415849057#1 -415849057#0 -415849086#1 -415849086#0 -415849075#1 -415849075#0 -415849089#1 -415849089#0 -415849088#0 -415849070#2 -415849070#1 -415849070#0 -415849092 -415849087#1 -415849087#0 -50980317#2 -50980317#1 -50980317#0 -517223292#4 -517223292#3 50876132#0 50876132#1 50876132#2 -50877464#3 -50877464#2 -50877464#1"/>
    </vehicle>
    <vehicle id="veh54" type="veh_passenger" depart="43.13" departLane="best">
        <route edges="8958196#1 8958196#2 8958196#3 415849051#2 415849050 -415849097 -519226933#3 -519226933#2 -519226933#1 -519226933#0 -415849109#5 -415849109#4 -415849109#3 -415849109#2 -415849109#1 -415849109#0 -415849099 -415849096 -415849107 -28485229#2 -28485229#1 -28485229#0 -415849103#0 -415849093#3 -415849093#2 -415849093#1 -415849093#0 -415849098 -415849070#2 -415849070#1 -415849070#0 -415849092 -415849087#1 -415849087#0 -47653723#2 -47653723#1 -47653723#0 28485223 415849076 415849084 415849078 415849091#0 415849091#1 415849091#3 415849059 415849082#1 415849077 415849080 415849055 -415850754 8950901#0 8953130"/>
    </vehicle>
    <vehicle id="veh55" type="veh_passenger" depart="43.93" departLane="best">
        <route edges="-8935757 8944909#2 -8964914 50877464#0 50877464#1 50877464#2 50877464#3 -50876132#2 -50876132#1 -50876132#0 517223292#3 517223292#4 517223292#6 50980317#1 50980317#2 415849087#0 415849087#1 415849092 415849070#0 415849070#1 415849070#2 415849088#0 415849088#1 415849089#1 415849089#2 415849075#1 415849065 415849086#1 465132793 415849057#1 8960917#0 8960917#1 -50876130#0 50876130#0"/>
    </vehicle>
    <vehicle id="veh56" type="veh_passenger" depart="44.73" departLane="best">
        <route edges="28485337#3 -28485337#3 -28485337#2 -28485403 -415850764#2 -415850764#1 -415850764#0 -415850756 -8962415#2 -8962415#1 -8962415#0 -415850755 -415850765#4 -415850765#3 -415850765#2 -415850765#1 -415850765#0 -415850762#1 415849049#0 415849045#0 415849045#2 415849045#4 415849045#6 415849045#7 -428045956#4 -428045956#3"/>
    </vehicle>
    <vehicle id="veh57" type="veh_passenger" depart="45.53" departLane="best">
        <route edges="50980298#0 -50980298#0 -8936718#19 -8936718#18 -8936718#17 -8936718#16 -8936718#15 8938875#4 8938875#5 8938875#6 8938875#7 8938875#8 -8960968#9 8944909#0 8944909#1 8944909#2 -8964914 50877464#0 50877464#1 50877464#2 50877464#3 -50876132#2 -50876132#1 -50876132#0 517223292#3 517223292#4 517223292#6 50980317#1 50980317#2 415849087#0 415849087#1 415849092 415849070#0 415849070#1 415849070#2 415849098 415849093#0 415849093#1 415849093#2 415849093#3 415849103#0 28485230 28485229#1 28485229#2 415849107 415849096 415849099 516442621 415849109#1 415849109#2 415849109#3 415849109#4 415849109#5 519226933#0 519226933#1 519226933#2 519226933#3 415849097 415849094 415849111#0 415849111#1 415849111#2 415849111#3 415849111#4 415849111#5 415849095 415849102 415849110#0"/>
    </vehicle>
    <vehicle id="veh58" type="veh_passenger" depart="46.33" departLane="best">
        <route edges="51062010#0 51062010#1 51062010#2 258707678#1 258707678#2 258707678#3 258707678#4 258707678#5 258707678#6 258707678#7 258707678#8 258707678#9 415849101 415849100 415849105 415849106#1 415849098"/>
    </vehicle>
    <vehicle id="veh59" type="veh_passenger" depart="47.13" departLane="best">
        <route edges="-120595215 120595225#1 120595225#2 120595225#3 120595220#0 120595220#1 415855079#1 8938875#0 8938875#1 8938875#3 8938875#4 8938875#5 8938875#6 8938875#7 8938875#8 425174925#0 425174925#1 517226537#0 517226537#1 28485126 417711171 417711191 78135426#0 78135426#1 -8957750#1 8949809#0 -8958268"/>
    </vehicle>
    <vehicle id="veh60" type="veh_passenger" depart="47.93" departLane="best">
        <route edges="-241679659 -241679660#0 -417044466#2 -417044466#1 -417044466#0 -415850754 -415850749 -415850746 -417711162 -417711159 -417711163#1 8961441"/>
    </vehicle>
    <vehicle id="veh61" type="veh_passenger" depart="48.73" departLane="best">
        <route edges="8947165#0 8947165#1 -8966673#3 -8966673#2 8950185 -8937606#1 -8937606#0 -28485159#4 -28485159#3 -28485159#2 -28485159#1 -28485159#0 -25927364#2 -25927364#1 -25927364#0 -517223292#1 -517223292#0 -517223288 -50876127#10 -50876127#8 -50876127#7 -50876127#6 -50876127#5 -50876127#4 -50876127#2 -50876127#1 -50876127#0 415855066 8967965#1 8967965#2 8967965#3 8958656#13 8958656#14 8958656#15 8946086#1"/>
    </vehicle>
    <vehicle id="veh62" type="veh_passenger" depart="49.52" departLane="best">