<additional xmlns:xsi="http://www.w3.org/2001/XMLSchema-instance" xsi:noNamespaceSchemaLocation="http://sumo.dlr.de/xsd/additional_file.xsd">
    <laneAreaDetector file="e2output.xml" freq="60" friendlyPos="x" id="e2det_-159230295#3_0" lane="-159230295#3_0" length="100" pos="3.11"/>
    <laneAreaDetector file="e2output.xml" freq="60" friendlyPos="x" id="e2det_-258707678#2_0" lane="-258707678#2_0" length="67.66" pos="0"/>
    <laneAreaDetector file="e2output.xml" freq="60" friendlyPos="x" id="e2det_-258707678#2_1" lane="-258707678#2_1" length="67.66" pos="0"/>
    <laneAreaDetector file="e2output.xml" freq="60" friendlyPos="x" id="e2det_159230295#2_0" lane="159230295#2_0" length="100" pos="101.06"/>
    <laneAreaDetector file="e2output.xml" freq="60" friendlyPos="x" id="e2det_258707678#1_0" lane="258707678#1_0" length="50.2" pos="1.4155343564e-15"/>
    <laneAreaDetector file="e2output.xml" freq="60" friendlyPos="x" id="e2det_258707678#1_1" lane="258707678#1_1" length="50.2" pos="1.4155343564e-15"/>
    <laneAreaDetector file="e2output.xml" freq="60" friendlyPos="x" id="e2det_-258707678#0_0" lane="-258707678#0_0" length="100" pos="130.84"/>
    <laneAreaDetector file="e2output.xml" freq="60" friendlyPos="x" id="e2det_-258707678#0_1" lane="-258707678#0_1" length="100" pos="130.84"/>
    <laneAreaDetector file="e2output.xml" freq="60" friendlyPos="x" id="e2det_-8960968#0_0" lane="-8960968#0_0" length="100" pos="122.86"/>
    <laneAreaDetector file="e2output.xml" freq="60" friendlyPos="x" id="e2det_-8960968#0_1" lane="-8960968#0_1" length="100" pos="122.86"/>
    <laneAreaDetector file="e2output.xml" freq="60" friendlyPos="x" id="e2det_417706846_0" lane="417706846_0" length="29.53" pos="1.4155343564e-15"/>
    <laneAreaDetector file="e2output.xml" freq="60" friendlyPos="x" id="e2det_417706846_1" lane="417706846_1" length="29.53" pos="1.4155343564e-15"/>
    <laneAreaDetector file="e2output.xml" freq="60" friendlyPos="x" id="e2det_417706846_2" lane="417706846_2" length="29.53" pos="1.4155343564e-15"/>
    <laneAreaDetector file="e2output.xml" freq="60" friendlyPos="x" id="e2det_417711203#1_0" lane="417711203#1_0" length="100" pos="107.34"/>
    <laneAreaDetector file="e2output.xml" freq="60" friendlyPos="x" id="e2det_417711203#1_1" lane="417711203#1_1" length="100" pos="107.34"/>
    <laneAreaDetector file="e2output.xml" freq="60" friendlyPos="x" id="e2det_-377584893#1_0" lane="-377584893#1_0" length="56.48" pos="1.4155343564e-15"/>
    <laneAreaDetector file="e2output.xml" freq="60" friendlyPos="x" id="e2det_-377585177#1_0" lane="-377585177#1_0" length="2.2" pos="8.32667268469e-17"/>
    <laneAreaDetector file="e2output.xml" freq="60" friendlyPos="x" id="e2det_338200358#1_0" lane="338200358#1_0" length="11.8" pos="0"/>
    <laneAreaDetector file="e2output.xml" freq="60" friendlyPos="x" id="e2det_338200358#1_1" lane="338200358#1_1" length="11.8" pos="0"/>
    <laneAreaDetector file="e2output.xml" freq="60" friendlyPos="x" id="e2det_338200365#0_0" lane="338200365#0_0" length="35.03" pos="1.4155343564e-15"/>
    <laneAreaDetector file="e2output.xml" freq="60" friendlyPos="x" id="e2det_338200365#0_1" lane="338200365#0_1" length="35.03" pos="1.4155343564e-15"/>
    <laneAreaDetector file="e2output.xml" freq="60" friendlyPos="x" id="e2det_338200365#0_2" lane="338200365#0_2" length="35.03" pos="1.4155343564e-15"/>
    <laneAreaDetector file="e2output.xml" freq="60" friendlyPos="x" id="e2det_338200365#0_3" lane="338200365#0_3" length="35.03" pos="1.4155343564e-15"/>
    <laneAreaDetector file="e2output.xml" freq="60" friendlyPos="x" id="e2det_338200371#0_0" lane="338200371#0_0" length="27.93" pos="1.4155343564e-15"/>
    <laneAreaDetector file="e2output.xml" freq="60" friendlyPos="x" id="e2det_338200371#0_1" lane="338200371#0_1" length="27.93" pos="1.4155343564e-15"/>
    <laneAreaDetector file="e2output.xml" freq="60" friendlyPos="x" id="e2det_338200371#0_2" lane="338200371#0_2" length="27.93" pos="1.4155343564e-15"/>
    <laneAreaDetector file="e2output.xml" freq="60" friendlyPos="x" id="e2det_415855080#1_0" lane="415855080#1_0" length="100" pos="32.04"/>
    <laneAreaDetector file="e2output.xml" freq="60" friendlyPos="x" id="e2det_415855080#1_1" lane="415855080#1_1" length="100" pos="32.04"/>
    <laneAreaDetector file="e2output.xml" freq="60" friendlyPos="x" id="e2det_-415849046_0" lane="-415849046_0" length="36.29" pos="1.4155343564e-15"/>
    <laneAreaDetector file="e2output.xml" freq="60" friendlyPos="x" id="e2det_-415849046_1" lane="-415849046_1" length="36.29" pos="1.4155343564e-15"/>
    <laneAreaDetector file="e2output.xml" freq="60" friendlyPos="x" id="e2det_-415849046_2" lane="-415849046_2" length="36.29" pos="1.4155343564e-15"/>
    <laneAreaDetector file="e2output.xml" freq="60" friendlyPos="x" id="e2det_-415849094_0" lane="-415849094_0" length="25.21" pos="1.4155343564e-15"/>
    <laneAreaDetector file="e2output.xml" freq="60" friendlyPos="x" id="e2det_-415849094_1" lane="-415849094_1" length="25.21" pos="1.4155343564e-15"/>
    <laneAreaDetector file="e2output.xml" freq="60" friendlyPos="x" id="e2det_-415849094_2" lane="-415849094_2" length="25.21" pos="1.4155343564e-15"/>
    <laneAreaDetector file="e2output.xml" freq="60" friendlyPos="x" id="e2det_415849050_0" lane="415849050_0" length="29.45" pos="1.4155343564e-15"/>
    <laneAreaDetector file="e2output.xml" freq="60" friendlyPos="x" id="e2det_415849050_1" lane="415849050_1" length="29.45" pos="1.4155343564e-15"/>
    <laneAreaDetector file="e2output.xml" freq="60" friendlyPos="x" id="e2det_415849050_2" lane="415849050_2" length="29.45" pos="1.4155343564e-15"/>
    <laneAreaDetector file="e2output.xml" freq="60" friendlyPos="x" id="e2det_415849097_0" lane="415849097_0" length="27.09" pos="1.4155343564e-15"/>
    <laneAreaDetector file="e2output.xml" freq="60" friendlyPos="x" id="e2det_415849097_1" lane="415849097_1" length="27.09" pos="1.4155343564e-15"/>
    <laneAreaDetector file="e2output.xml" freq="60" friendlyPos="x" id="e2det_415849097_2" lane="415849097_2" length="27.09" pos="1.4155343564e-15"/>
    <laneAreaDetector file="e2output.xml" freq="60" friendlyPos="x" id="e2det_-415849049#1_0" lane="-415849049#1_0" length="20.82" pos="1.4155343564e-15"/>
    <laneAreaDetector file="e2output.xml" freq="60" friendlyPos="x" id="e2det_-415849049#1_1" lane="-415849049#1_1" length="20.82" pos="1.4155343564e-15"/>
    <laneAreaDetector file="e2output.xml" freq="60" friendlyPos="x" id="e2det_-415849049#1_2" lane="-415849049#1_2" length="20.82" pos="1.4155343564e-15"/>
    <laneAreaDetector file="e2output.xml" freq="60" friendlyPos="x" id="e2det_-415850762#1_0" lane="-415850762#1_0" length="32.97" pos="1.4155343564e-15"/>
    <laneAreaDetector file="e2output.xml" freq="60" friendlyPos="x" id="e2det_-415850762#1_1" lane="-415850762#1_1" length="32.97" pos="1.4155343564e-15"/>
    <laneAreaDetector file="e2output.xml" freq="60" friendlyPos="x" id="e2det_415849047#0_0" lane="415849047#0_0" length="24.45" pos="1.4155343564e-15"/>
    <laneAreaDetector file="e2output.xml" freq="60" friendlyPos="x" id="e2det_415849047#0_1" lane="415849047#0_1" length="24.45" pos="1.4155343564e-15"/>
    <laneAreaDetector file="e2output.xml" freq="60" friendlyPos="x" id="e2det_415849047#0_2" lane="415849047#0_2" length="24.45" pos="1.4155343564e-15"/>
    <laneAreaDetector file="e2output.xml" freq="60" friendlyPos="x" id="e2det_415850761#0_0" lane="415850761#0_0" length="75.56" pos="0"/>
    <laneAreaDetector file="e2output.xml" freq="60" friendlyPos="x" id="e2det_-415849076_0" lane="-415849076_0" length="31.8" pos="1.4155343564e-15"/>
    <laneAreaDetector file="e2output.xml" freq="60" friendlyPos="x" id="e2det_-415849076_1" lane="-415849076_1" length="31.8" pos="1.4155343564e-15"/>
    <laneAreaDetector file="e2output.xml" freq="60" friendlyPos="x" id="e2det_-415849076_2" lane="-415849076_2" length="31.8" pos="1.4155343564e-15"/>
    <laneAreaDetector file="e2output.xml" freq="60" friendlyPos="x" id="e2det_-8928697#0_0" lane="-8928697#0_0" length="88.71" pos="0"/>
    <laneAreaDetector file="e2output.xml" freq="60" friendlyPos="x" id="e2det_28485223_0" lane="28485223_0" length="100" pos="82.63"/>
    <laneAreaDetector file="e2output.xml" freq="60" friendlyPos="x" id="e2det_28485223_1" lane="28485223_1" length="100" pos="82.63"/>
    <laneAreaDetector file="e2output.xml" freq="60" friendlyPos="x" id="e2det_-415849085#0_0" lane="-415849085#0_0" length="21.02" pos="1.4155343564e-15"/>
    <laneAreaDetector file="e2output.xml" freq="60" friendlyPos="x" id="e2det_-415849085#0_1" lane="-415849085#0_1" length="21.02" pos="1.4155343564e-15"/>
    <laneAreaDetector file="e2output.xml" freq="60" friendlyPos="x" id="e2det_-8960917#0_0" lane="-8960917#0_0" length="24.95" pos="1.4155343564e-15"/>
    <laneAreaDetector file="e2output.xml" freq="60" friendlyPos="x" id="e2det_-8962997#0_0" lane="-8962997#0_0" length="49.36" pos="1.4155343564e-15"/>
    <laneAreaDetector file="e2output.xml" freq="60" friendlyPos="x" id="e2det_415849057#1_0" lane="415849057#1_0" length="17.61" pos="1.4155343564e-15"/>
    <laneAreaDetector file="e2output.xml" freq="60" friendlyPos="x" id="e2det_415849057#1_1" lane="415849057#1_1" length="17.61" pos="1.4155343564e-15"/>
    <laneAreaDetector file="e2output.xml" freq="60" friendlyPos="x" id="e2det_-415849086#0_0" lane="-415849086#0_0" length="49.27" pos="1.4155343564e-15"/>
    <laneAreaDetector file="e2output.xml" freq="60" friendlyPos="x" id="e2det_-415849086#0_1" lane="-415849086#0_1" length="49.27" pos="1.4155343564e-15"/>
    <laneAreaDetector file="e2output.xml" freq="60" friendlyPos="x" id="e2det_-502139958_0" lane="-502139958_0" length="54.53" pos="1.4155343564e-15"/>
    <laneAreaDetector file="e2output.xml" freq="60" friendlyPos="x" id="e2det_238911933#1_0" lane="238911933#1_0" length="8.91" pos="0"/>
    <laneAreaDetector file="e2output.xml" freq="60" friendlyPos="x" id="e2det_415849075#1_0" lane="415849075#1_0" length="11.78" pos="0"/>
    <laneAreaDetector file="e2output.xml" freq="60" friendlyPos="x" id="e2det_415849075#1_1" lane="415849075#1_1" length="11.78" pos="0"/>
    <laneAreaDetector file="e2output.xml" freq="60" friendlyPos="x" id="e2det_502139957_0" lane="502139957_0" length="56.82" pos="1.4155343564e-15"/>
    <laneAreaDetector file="e2output.xml" freq="60" friendlyPos="x" id="e2det_-415849088#0_0" lane="-415849088#0_0" length="34.11" pos="1.4155343564e-15"/>
    <laneAreaDetector file="e2output.xml" freq="60" friendlyPos="x" id="e2det_-415849088#0_1" lane="-415849088#0_1" length="34.11" pos="1.4155343564e-15"/>
    <laneAreaDetector file="e2output.xml" freq="60" friendlyPos="x" id="e2det_-415849098_0" lane="-415849098_0" length="39.37" pos="1.4155343564e-15"/>
    <laneAreaDetector file="e2output.xml" freq="60" friendlyPos="x" id="e2det_-415849098_1" lane="-415849098_1" length="39.37" pos="1.4155343564e-15"/>
    <laneAreaDetector file="e2output.xml" freq="60" friendlyPos="x" id="e2det_-415849098_2" lane="-415849098_2" length="39.37" pos="1.4155343564e-15"/>
    <laneAreaDetector file="e2output.xml" freq="60" friendlyPos="x" id="e2det_415849070#2_0" lane="415849070#2_0" length="15.81" pos="0"/>
    <laneAreaDetector file="e2output.xml" freq="60" friendlyPos="x" id="e2det_415849070#2_1" lane="415849070#2_1" length="15.81" pos="0"/>
    <laneAreaDetector file="e2output.xml" freq="60" friendlyPos="x" id="e2det_415849070#2_2" lane="415849070#2_2" length="15.81" pos="0"/>
    <laneAreaDetector file="e2output.xml" freq="60" friendlyPos="x" id="e2det_415849106#1_0" lane="415849106#1_0" length="23.5" pos="1.4155343564e-15"/>
    <laneAreaDetector file="e2output.xml" freq="60" friendlyPos="x" id="e2det_415849106#1_1" lane="415849106#1_1" length="23.5" pos="1.4155343564e-15"/>
    <laneAreaDetector file="e2output.xml" freq="60" friendlyPos="x" id="e2det_415849106#1_2" lane="415849106#1_2" length="23.5" pos="1.4155343564e-15"/>
    <laneAreaDetector file="e2output.xml" freq="60" friendlyPos="x" id="e2det_-415849109#0_0" lane="-415849109#0_0" length="19.44" pos="1.4155343564e-15"/>
    <laneAreaDetector file="e2output.xml" freq="60" friendlyPos="x" id="e2det_-415849109#0_1" lane="-415849109#0_1" length="19.44" pos="1.4155343564e-15"/>
    <laneAreaDetector file="e2output.xml" freq="60" friendlyPos="x" id="e2det_415849099_0" lane="415849099_0" length="61.38" pos="1.4155343564e-15"/>
    <laneAreaDetector file="e2output.xml" freq="60" friendlyPos="x" id="e2det_415849099_1" lane="415849099_1" length="61.38" pos="1.4155343564e-15"/>
    <laneAreaDetector file="e2output.xml" freq="60" friendlyPos="x" id="e2det_415849099_2" lane="415849099_2" length="61.38" pos="1.4155343564e-15"/>
    <laneAreaDetector file="e2output.xml" freq="60" friendlyPos="x" id="e2det_519539642_0" lane="519539642_0" length="75.51" pos="0"/>
    <laneAreaDetector file="e2output.xml" freq="60" friendlyPos="x" id="e2det_-415850747_0" lane="-415850747_0" length="30.94" pos="1.4155343564e-15"/>
    <laneAreaDetector file="e2output.xml" freq="60" friendlyPos="x" id="e2det_-415850747_1" lane="-415850747_1" length="30.94" pos="1.4155343564e-15"/>
    <laneAreaDetector file="e2output.xml" freq="60" friendlyPos="x" id="e2det_-417044466#0_0" lane="-417044466#0_0" length="89.72" pos="0"/>
    <laneAreaDetector file="e2output.xml" freq="60" friendlyPos="x" id="e2det_-417044466#0_1" lane="-417044466#0_1" length="89.72" pos="0"/>
    <laneAreaDetector file="e2output.xml" freq="60" friendlyPos="x" id="e2det_415849055_0" lane="415849055_0" length="40.23" pos="1.4155343564e-15"/>
    <laneAreaDetector file="e2output.xml" freq="60" friendlyPos="x" id="e2det_415849055_1" lane="415849055_1" length="40.23" pos="1.4155343564e-15"/>
    <laneAreaDetector file="e2output.xml" freq="60" friendlyPos="x" id="e2det_415849055_2" lane="415849055_2" length="40.23" pos="1.4155343564e-15"/>
    <laneAreaDetector file="e2output.xml" freq="60" friendlyPos="x" id="e2det_415850754_0" lane="415850754_0" length="41.69" pos="1.4155343564e-15"/>
    <laneAreaDetector file="e2output.xml" freq="60" friendlyPos="x" id="e2det_415850754_1" lane="415850754_1" length="41.69" pos="1.4155343564e-15"/>
    <laneAreaDetector file="e2output.xml" freq="60" friendlyPos="x" id="e2det_-417044397_0" lane="-417044397_0" length="18.85" pos="1.4155343564e-15"/>
    <laneAreaDetector file="e2output.xml" freq="60" friendlyPos="x" id="e2det_-417044397_1" lane="-417044397_1" length="18.85" pos="1.4155343564e-15"/>
    <laneAreaDetector file="e2output.xml" freq="60" friendlyPos="x" id="e2det_-417044397_2" lane="-417044397_2" length="18.85" pos="1.4155343564e-15"/>
    <laneAreaDetector file="e2output.xml" freq="60" friendlyPos="x" id="e2det_-8942286#2_0" lane="-8942286#2_0" length="10.35" pos="0"/>
    <laneAreaDetector file="e2output.xml" freq="60" friendlyPos="x" id="e2det_417044391_0" lane="417044391_0" length="18.74" pos="1.4155343564e-15"/>
    <laneAreaDetector file="e2output.xml" freq="60" friendlyPos="x" id="e2det_417044391_1" lane="417044391_1" length="18.74" pos="1.4155343564e-15"/>
    <laneAreaDetector file="e2output.xml" freq="60" friendlyPos="x" id="e2det_417044391_2" lane="417044391_2" length="18.74" pos="1.4155343564e-15"/>
    <laneAreaDetector file="e2output.xml" freq="60" friendlyPos="x" id="e2det_8942286#1_0" lane="8942286#1_0" length="15.58" pos="0"/>
    <laneAreaDetector file="e2output.xml" freq="60" friendlyPos="x" id="e2det_-417711165_0" lane="-417711165_0" length="66.35" pos="0"/>
    <laneAreaDetector file="e2output.xml" freq="60" friendlyPos="x" id="e2det_-417711165_1" lane="-417711165_1" length="66.35" pos="0"/>
    <laneAreaDetector file="e2output.xml" freq="60" friendlyPos="x" id="e2det_-417711165_2" lane="-417711165_2" length="66.35" pos="0"/>
    <laneAreaDetector file="e2output.xml" freq="60" friendlyPos="x" id="e2det_-417711191_0" lane="-417711191_0" length="37.51" pos="1.4155343564e-15"/>
    <laneAreaDetector file="e2output.xml" freq="60" friendlyPos="x" id="e2det_-417711191_1" lane="-417711191_1" length="37.51" pos="1.4155343564e-15"/>
    <laneAreaDetector file="e2output.xml" freq="60" friendlyPos="x" id="e2det_417711171_0" lane="417711171_0" length="63.73" pos="1.4155343564e-15"/>
    <laneAreaDetector file="e2output.xml" freq="60" friendlyPos="x" id="e2det_417711171_1" lane="417711171_1" length="63.73" pos="1.4155343564e-15"/>
    <laneAreaDetector file="e2output.xml" freq="60" friendlyPos="x" id="e2det_417711171_2" lane="417711171_2" length="63.73" pos="1.4155343564e-15"/>
    <laneAreaDetector file="e2output.xml" freq="60" friendlyPos="x" id="e2det_-50876127#0_0" lane="-50876127#0_0" length="100" pos="18.07"/>
    <laneAreaDetector file="e2output.xml" freq="60" friendlyPos="x" id="e2det_415855067_0" lane="415855067_0" length="100" pos="0.9"/>
    <laneAreaDetector file="e2output.xml" freq="60" friendlyPos="x" id="e2det_415855067_1" lane="415855067_1" length="100" pos="0.9"/>
    <laneAreaDetector file="e2output.xml" freq="60" friendlyPos="x" id="e2det_415855081#2_0" lane="415855081#2_0" length="100" pos="13.23"/>
    <laneAreaDetector file="e2output.xml" freq="60" friendlyPos="x" id="e2det_415855081#2_1" lane="415855081#2_1" length="100" pos="13.23"/>
    <laneAreaDetector file="e2output.xml" freq="60" friendlyPos="x" id="e2det_-517223292#0_0" lane="-517223292#0_0" length="100" pos="81.29"/>
    <laneAreaDetector file="e2output.xml" freq="60" friendlyPos="x" id="e2det_-8960968#3_0" lane="-8960968#3_0" length="66.44" pos="0"/>
    <laneAreaDetector file="e2output.xml" freq="60" friendlyPos="x" id="e2det_-8960968#3_1" lane="-8960968#3_1" length="66.44" pos="0"/>
    <laneAreaDetector file="e2output.xml" freq="60" friendlyPos="x" id="e2det_517223288_0" lane="517223288_0" length="15.84" pos="0"/>
    <laneAreaDetector file="e2output.xml" freq="60" friendlyPos="x" id="e2det_517223288_1" lane="517223288_1" length="15.84" pos="0"/>
    <laneAreaDetector file="e2output.xml" freq="60" friendlyPos="x" id="e2det_8960968#2_0" lane="8960968#2_0" length="100" pos="52.07"/>
    <laneAreaDetector file="e2output.xml" freq="60" friendlyPos="x" id="e2det_8960968#2_1" lane="8960968#2_1" length="100" pos="52.07"/>
    <laneAreaDetector file="e2output.xml" freq="60" friendlyPos="x" id="e2det_282118320#0_0" lane="282118320#0_0" length="42.52" pos="1.4155343564e-15"/>
    <laneAreaDetector file="e2output.xml" freq="60" friendlyPos="x" id="e2det_415850743#0_0" lane="415850743#0_0" length="35.58" pos="1.4155343564e-15"/>
</additional>
