<?xml version="1.0" encoding="UTF-8"?>
<!-- generated on 2018-07-24 10:37:23.400452 by $Id$ via randomTrips.py
  options: 
-->
<routes xmlns:xsi="http://www.w3.org/2001/XMLSchema-instance" xsi:noNamespaceSchemaLocation="http://sumo.dlr.de/xsd/routes_file.xsd">
    <vType id="veh_passenger" speedFactor="normc(1.00,0.10,0.20,2.00)" vClass="passenger">
    </vType>
    <trip id="veh0" depart="0.00" departLane="best" from="415849045#6" to="-258707678#5" type="veh_passenger"/>
    <trip id="veh1" depart="0.50" departLane="best" from="-8932468#2" to="-8930166#0" type="veh_passenger"/>
    <trip id="veh2" depart="1.00" departLane="best" from="428045956#4" to="51062011" type="veh_passenger"/>
    <trip id="veh3" depart="1.50" departLane="best" from="8950901#3" to="-415849081" type="veh_passenger"/>
    <trip id="veh4" depart="2.00" departLane="best" from="-8953791" to="-269869578#2" type="veh_passenger"/>
    <trip id="veh5" depart="2.50" departLane="best" from="-50980310#3" to="377585177#3" type="veh_passenger"/>
    <trip id="veh6" depart="3.00" departLane="best" from="-24287075#2" to="-51062010#1" type="veh_passenger"/>
    <trip id="veh7" depart="3.49" departLane="best" from="415849078" to="415850742#2" type="veh_passenger"/>
    <trip id="veh8" depart="3.99" departLane="best" from="8929983#1" to="-159230295#4" type="veh_passenger"/>
    <trip id="veh9" depart="4.49" departLane="best" from="8928697#2" to="60726012#1" type="veh_passenger"/>
    <trip id="veh10" depart="4.99" departLane="best" from="-8940584" to="-448447940#6" type="veh_passenger"/>
    <trip id="veh11" depart="5.49" departLane="best" from="8963922#0" to="-8958782#2" type="veh_passenger"/>
    <trip id="veh12" depart="5.99" departLane="best" from="-415849085#0" to="-415849096" type="veh_passenger"/>
    <trip id="veh13" depart="6.49" departLane="best" from="8938875#4" to="421572323" type="veh_passenger"/>
    <trip id="veh14" depart="6.99" departLane="best" from="8929558#0" to="8932468#2" type="veh_passenger"/>
    <trip id="veh15" depart="7.49" departLane="best" from="-8970151#0" to="8967661" type="veh_passenger"/>
    <trip id="veh16" depart="7.99" departLane="best" from="-8946653#3" to="415850755" type="veh_passenger"/>
    <trip id="veh17" depart="8.49" departLane="best" from="8936718#0" to="46933996" type="veh_passenger"/>
    <trip id="veh18" depart="8.99" departLane="best" from="417044466#6" to="-28485229#1" type="veh_passenger"/>
    <trip id="veh19" depart="9.49" departLane="best" from="-51062010#1" to="-8947165#0" type="veh_passenger"/>
    <trip id="veh20" depart="9.98" departLane="best" from="-415849046" to="-8933892#2" type="veh_passenger"/>
    <trip id="veh21" depart="10.48" departLane="best" from="-415849096" to="-8943215" type="veh_passenger"/>
    <trip id="veh23" depart="11.48" departLane="best" from="-8945150" to="-534658218#0" type="veh_passenger"/>
    <trip id="veh24" depart="11.98" departLane="best" from="-8931199#0" to="8962899#3" type="veh_passenger"/>
    <trip id="veh25" depart="12.48" departLane="best" from="415849070#2" to="428045955#2" type="veh_passenger"/>
    <trip id="veh26" depart="12.98" departLane="best" from="-46933997" to="8932468#2" type="veh_passenger"/>
    <trip id="veh27" depart="13.48" departLane="best" from="-428045956#3" to="-8965856#0" type="veh_passenger"/>
    <trip id="veh28" depart="13.98" departLane="best" from="8968919#2" to="50876130#4" type="veh_passenger"/>
    <trip id="veh29" depart="14.48" departLane="best" from="236036389#0" to="516441651#1" type="veh_passenger"/>
    <trip id="veh30" depart="14.98" departLane="best" from="8938010#0" to="8937168" type="veh_passenger"/>
    <trip id="veh31" depart="15.48" departLane="best" from="-51062011" to="-271049179#0" type="veh_passenger"/>
    <trip id="veh32" depart="15.98" departLane="best" from="-8936718#8" to="-8942111#0" type="veh_passenger"/>
    <trip id="veh33" depart="16.47" departLane="best" from="-50980306#1" to="8962997#7" type="veh_passenger"/>
    <trip id="veh34" depart="16.97" departLane="best" from="8946750" to="-8956478" type="veh_passenger"/>
    <trip id="veh35" depart="17.47" departLane="best" from="415849089#1" to="-8968669#0" type="veh_passenger"/>
    <trip id="veh36" depart="17.97" departLane="best" from="8958429" to="275259449" type="veh_passenger"/>
    <trip id="veh37" depart="18.47" departLane="best" from="-8930166#3" to="-8936718#2" type="veh_passenger"/>
    <trip id="veh38" depart="18.97" departLane="best" from="236036390#0" to="-8941523#1" type="veh_passenger"/>
    <trip id="veh39" depart="19.47" departLane="best" from="271049179#3" to="8957238#5" type="veh_passenger"/>
    <trip id="veh40" depart="19.97" departLane="best" from="8970151#1" to="415849048#0" type="veh_passenger"/>
    <trip id="veh41" depart="20.47" departLane="best" from="-415849081" to="-28485247#0" type="veh_passenger"/>
    <trip id="veh42" depart="20.97" departLane="best" from="-415849109#3" to="47472517#1" type="veh_passenger"/>
    <trip id="veh43" depart="21.47" departLane="best" from="534658218#0" to="159230296#1" type="veh_passenger"/>
    <trip id="veh44" depart="21.97" departLane="best" from="-287411807#1" to="-8966417#0" type="veh_passenger"/>
    <trip id="veh45" depart="22.47" departLane="best" from="8970002" to="415849096" type="veh_passenger"/>
    <trip id="veh46" depart="22.96" departLane="best" from="8966417#0" to="8950901#3" type="veh_passenger"/>
    <trip id="veh47" depart="23.46" departLane="best" from="-236036390#2" to="8930166#3" type="veh_passenger"/>
    <trip id="veh48" depart="23.96" departLane="best" from="415850757" to="415849109#1" type="veh_passenger"/>
    <trip id="veh49" depart="24.46" departLane="best" from="-8931199#0" to="50876130#6" type="veh_passenger"/>
    <trip id="veh50" depart="24.96" departLane="best" from="-415849110#1" to="241679659" type="veh_passenger"/>
    <trip id="veh51" depart="25.46" departLane="best" from="-8958656#8" to="8964054" type="veh_passenger"/>
    <trip id="veh52" depart="25.96" departLane="best" from="8946655" to="-8941929" type="veh_passenger"/>
    <trip id="veh53" depart="26.46" departLane="best" from="-8964929#0" to="-50877464#1" type="veh_passenger"/>
    <trip id="veh54" depart="26.96" departLane="best" from="8958196#1" to="8953130" type="veh_passenger"/>
    <trip id="veh55" depart="27.46" departLane="best" from="-8935757" to="50876130#0" type="veh_passenger"/>
    <trip id="veh56" depart="27.96" departLane="best" from="28485337#3" to="-428045956#3" type="veh_passenger"/>
    <trip id="veh57" depart="28.46" departLane="best" from="50980298#0" to="415849110#0" type="veh_passenger"/>
    <trip id="veh58" depart="28.96" departLane="best" from="51062010#0" to="415849098" type="veh_passenger"/>
    <trip id="veh59" depart="29.45" departLane="best" from="-120595215" to="-8958268" type="veh_passenger"/>
    <trip id="veh60" depart="29.95" departLane="best" from="-241679659" to="8961441" type="veh_passenger"/>
    <trip id="veh61" depart="30.45" departLane="best" from="8947165#0" to="8946086#1" type="veh_passenger"/>
    <trip id="veh62" depart="30.95" departLane="best" from="-8936718#1" to="-333016923#0" type="veh_passenger"/>
    <trip id="veh63" depart="31.45" departLane="best" from="8947165#0" to="8963229" type="veh_passenger"/>
    <trip id="veh64" depart="31.95" departLane="best" from="-415849057#1" to="287411807#1" type="veh_passenger"/>
    <trip id="veh65" depart="32.45" departLane="best" from="-352368627#2" to="8936344" type="veh_passenger"/>
    <trip id="veh66" depart="32.95" departLane="best" from="50980307#1" to="-417706852" type="veh_passenger"/>
    <trip id="veh67" depart="33.45" departLane="best" from="-8962000#1" to="415850748" type="veh_passenger"/>
    <trip id="veh68" depart="33.95" departLane="best" from="-8930166#3" to="8953615" type="veh_passenger"/>
    <trip id="veh69" depart="34.45" departLane="best" from="-8953942" to="-534658218#1" type="veh_passenger"/>
    <trip id="veh70" depart="34.95" departLane="best" from="-8970372#1" to="8932468#2" type="veh_passenger"/>
    <trip id="veh71" depart="35.45" departLane="best" from="-50876135#1" to="-8955198#0" type="veh_passenger"/>
    <trip id="veh72" depart="35.94" departLane="best" from="8970002" to="50876135#2" type="veh_passenger"/>
    <trip id="veh73" depart="36.44" departLane="best" from="-8957238#1" to="415849076" type="veh_passenger"/>
    <trip id="veh74" depart="36.94" departLane="best" from="-415850758#2" to="-8930166#3" type="veh_passenger"/>
    <trip id="veh75" depart="37.44" departLane="best" from="-8939405#0" to="417706950#3" type="veh_passenger"/>
    <trip id="veh76" depart="37.94" departLane="best" from="-51062011" to="-8929983#1" type="veh_passenger"/>
    <trip id="veh77" depart="38.44" departLane="best" from="-366178056#2" to="50876126" type="veh_passenger"/>
    <trip id="veh78" depart="38.94" departLane="best" from="-51062011" to="8958656#0" type="veh_passenger"/>
    <trip id="veh79" depart="39.44" departLane="best" from="8942286#11" to="-377584893#1" type="veh_passenger"/>
    <trip id="veh80" depart="39.94" departLane="best" from="-517223292#1" to="50980315#1" type="veh_passenger"/>
    <trip id="veh81" depart="40.44" departLane="best" from="-50980309#2" to="-417706911#1" type="veh_passenger"/>
    <trip id="veh83" depart="41.44" departLane="best" from="8929558#1" to="-50980315#0" type="veh_passenger"/>
    <trip id="veh84" depart="41.94" departLane="best" from="-415849091#1" to="237467323" type="veh_passenger"/>
    <trip id="veh85" depart="42.43" departLane="best" from="-8954492" to="28485159#1" type="veh_passenger"/>
    <trip id="veh86" depart="42.93" departLane="best" from="421572322#1" to="51062001#1" type="veh_passenger"/>
    <trip id="veh87" depart="43.43" departLane="best" from="8968669#0" to="-415849099" type="veh_passenger"/>
    <trip id="veh88" depart="43.93" departLane="best" from="-8950901#1" to="-8958844" type="veh_passenger"/>
    <trip id="veh89" depart="44.43" departLane="best" from="8942286#5" to="-8936718#6" type="veh_passenger"/>
    <trip id="veh90" depart="44.93" departLane="best" from="-50876130#0" to="25927364#3" type="veh_passenger"/>
    <trip id="veh91" depart="45.43" departLane="best" from="-8953791" to="-8943215" type="veh_passenger"/>
    <trip id="veh92" depart="45.93" departLane="best" from="-8928820" to="8960968#1" type="veh_passenger"/>
    <trip id="veh93" depart="46.43" departLane="best" from="-8957750#1" to="8950901#4" type="veh_passenger"/>
    <trip id="veh94" depart="46.93" departLane="best" from="159230295#0" to="-28485247#4" type="veh_passenger"/>
    <trip id="veh95" depart="47.43" departLane="best" from="8970372#0" to="8946653#3" type="veh_passenger"/>
    <trip id="veh96" depart="47.93" departLane="best" from="8966250" to="8960968#9" type="veh_passenger"/>
    <trip id="veh97" depart="48.43" departLane="best" from="8938875#7" to="-50876128#4" type="veh_passenger"/>
    <trip id="veh98" depart="48.92" departLane="best" from="-8962997#8" to="-78135426#1" type="veh_passenger"/>
    <trip id="veh99" depart="49.42" departLane="best" from="-8950185" to="-333016923#0" type="veh_passenger"/>
    <trip id="veh100" depart="49.92" departLane="best" from="-8946653#3" to="8968669#2" type="veh_passenger"/>
    <trip id="veh101" depart="50.42" departLane="best" from="-8930166#3" to="8937744" type="veh_passenger"/>
    <trip id="veh102" depart="50.92" departLane="best" from="-8958782#1" to="232075731" type="veh_passenger"/>
    <trip id="veh103" depart="51.42" departLane="best" from="8963922#0" to="8970151#2" type="veh_passenger"/>
    <trip id="veh104" depart="51.92" departLane="best" from="232075811#0" to="8929983#5" type="veh_passenger"/>
    <trip id="veh105" depart="52.42" departLane="best" from="-421572323" to="-8949263#2" type="veh_passenger"/>
    <trip id="veh106" depart="52.92" departLane="best" from="8965856#1" to="417044466#3" type="veh_passenger"/>
    <trip id="veh107" depart="53.42" departLane="best" from="120595219" to="8934153#0" type="veh_passenger"/>
    <trip id="veh108" depart="53.92" departLane="best" from="-28485247#4" to="417706888" type="veh_passenger"/>
    <trip id="veh109" depart="54.42" departLane="best" from="-8965218#2" to="8949612" type="veh_passenger"/>
    <trip id="veh110" depart="54.92" departLane="best" from="-421811146#0" to="8965218#0" type="veh_passenger"/>
    <trip id="veh111" depart="55.41" departLane="best" from="-415849046" to="-50980309#3" type="veh_passenger"/>
    <trip id="veh112" depart="55.91" departLane="best" from="282118322#0" to="51062010#1" type="veh_passenger"/>
    <trip id="veh113" depart="56.41" departLane="best" from="-51062014#4" to="-415850765#1" type="veh_passenger"/>
    <trip id="veh114" depart="56.91" departLane="best" from="8950758" to="-8936718#19" type="veh_passenger"/>
    <trip id="veh115" depart="57.41" departLane="best" from="282118322#0" to="46933996" type="veh_passenger"/>
    <trip id="veh116" depart="57.91" departLane="best" from="-8953765" to="417706879" type="veh_passenger"/>
    <trip id="veh117" depart="58.41" departLane="best" from="-8967965#5" to="8962514#0" type="veh_passenger"/>
    <trip id="veh118" depart="58.91" departLane="best" from="-50877465" to="8929983#0" type="veh_passenger"/>
    <trip id="veh119" depart="59.41" departLane="best" from="-517223292#2" to="-8968669#1" type="veh_passenger"/>
    <trip id="veh120" depart="59.91" departLane="best" from="415849111#3" to="-8949809#0" type="veh_passenger"/>
    <trip id="veh121" depart="60.41" departLane="best" from="-8936996#1" to="8935102" type="veh_passenger"/>
    <trip id="veh122" depart="60.91" departLane="best" from="-366178056#5" to="275259449" type="veh_passenger"/>
    <trip id="veh123" depart="61.41" departLane="best" from="-366178057#0" to="-78135426#0" type="veh_passenger"/>
    <trip id="veh124" depart="61.90" departLane="best" from="-8930166#3" to="8962415#0" type="veh_passenger"/>
    <trip id="veh125" depart="62.40" departLane="best" from="8947602" to="8953791" type="veh_passenger"/>
    <trip id="veh126" depart="62.90" departLane="best" from="-8944909#1" to="-47472517#0" type="veh_passenger"/>
    <trip id="veh127" depart="63.40" departLane="best" from="8936718#17" to="8928697#2" type="veh_passenger"/>
    <trip id="veh128" depart="63.90" departLane="best" from="287558712#0" to="8968669#3" type="veh_passenger"/>
    <trip id="veh129" depart="64.40" departLane="best" from="415849087#1" to="-159230295#7" type="veh_passenger"/>
    <trip id="veh130" depart="64.90" departLane="best" from="415849101" to="8962917#1" type="veh_passenger"/>
    <trip id="veh131" depart="65.40" departLane="best" from="-415849108#1" to="415850758#0" type="veh_passenger"/>
    <trip id="veh132" depart="65.90" departLane="best" from="-8932385" to="421811146#0" type="veh_passenger"/>
    <trip id="veh134" depart="66.90" departLane="best" from="377584893#0" to="-8941929" type="veh_passenger"/>
    <trip id="veh135" depart="67.40" departLane="best" from="-8963148#0" to="8958656#0" type="veh_passenger"/>
    <trip id="veh136" depart="67.90" departLane="best" from="8938875#0" to="-415849091#0" type="veh_passenger"/>
    <trip id="veh137" depart="68.39" departLane="best" from="-8954492" to="-8943215" type="veh_passenger"/>
    <trip id="veh138" depart="68.89" departLane="best" from="-120595220#1" to="8936718#8" type="veh_passenger"/>
    <trip id="veh139" depart="69.39" departLane="best" from="377585177#3" to="-8941453#1" type="veh_passenger"/>
    <trip id="veh140" depart="69.89" departLane="best" from="469114860" to="415850755" type="veh_passenger"/>
    <trip id="veh141" depart="70.39" departLane="best" from="-8955205#2" to="-232075811#1" type="veh_passenger"/>
    <trip id="veh143" depart="71.39" departLane="best" from="8936718#19" to="417706846" type="veh_passenger"/>
    <trip id="veh144" depart="71.89" departLane="best" from="-417711165" to="-417706846" type="veh_passenger"/>
    <trip id="veh145" depart="72.39" departLane="best" from="-8936718#11" to="8957274" type="veh_passenger"/>
    <trip id="veh146" depart="72.89" departLane="best" from="534658218#4" to="8950901#3" type="veh_passenger"/>
    <trip id="veh147" depart="73.39" departLane="best" from="8953615" to="-534658218#0" type="veh_passenger"/>
    <trip id="veh148" depart="73.89" departLane="best" from="-8928820" to="-415849109#1" type="veh_passenger"/>
    <trip id="veh149" depart="74.39" departLane="best" from="51062010#1" to="8955198#2" type="veh_passenger"/>
    <trip id="veh150" depart="74.88" departLane="best" from="-8951005" to="46933997" type="veh_passenger"/>
    <trip id="veh151" depart="75.38" departLane="best" from="-421572322#2" to="8961441" type="veh_passenger"/>
    <trip id="veh152" depart="75.88" departLane="best" from="8943091#1" to="8967847#2" type="veh_passenger"/>
    <trip id="veh153" depart="76.38" departLane="best" from="8929983#4" to="8954492" type="veh_passenger"/>
    <trip id="veh154" depart="76.88" departLane="best" from="-241679661" to="8933115" type="veh_passenger"/>
    <trip id="veh155" depart="77.38" departLane="best" from="-8938010#2" to="8962000#1" type="veh_passenger"/>
    <trip id="veh156" depart="77.88" departLane="best" from="60725995#0" to="8951005" type="veh_passenger"/>
    <trip id="veh157" depart="78.38" departLane="best" from="8929983#4" to="-8942081" type="veh_passenger"/>
    <trip id="veh158" depart="78.88" departLane="best" from="517223292#2" to="-415849111#3" type="veh_passenger"/>
    <trip id="veh159" depart="79.38" departLane="best" from="8944909#1" to="8950185" type="veh_passenger"/>
    <trip id="veh160" depart="79.88" departLane="best" from="-50980316" to="8943091#1" type="veh_passenger"/>
    <trip id="veh162" depart="80.88" departLane="best" from="534658218#3" to="-8931246#0" type="veh_passenger"/>
    <trip id="veh163" depart="81.38" departLane="best" from="-241679661" to="-50980317#2" type="veh_passenger"/>
    <trip id="veh164" depart="81.87" departLane="best" from="-8937886#0" to="8951005" type="veh_passenger"/>
    <trip id="veh165" depart="82.37" departLane="best" from="8965218#2" to="-8944464" type="veh_passenger"/>
    <trip id="veh166" depart="82.87" departLane="best" from="415849048#0" to="-8968919#0" type="veh_passenger"/>
    <trip id="veh167" depart="83.37" departLane="best" from="8968435" to="415849108#0" type="veh_passenger"/>
    <trip id="veh168" depart="83.87" departLane="best" from="8960968#4" to="-415850759#0" type="veh_passenger"/>
    <trip id="veh169" depart="84.37" departLane="best" from="8966417#0" to="-50877464#1" type="veh_passenger"/>
    <trip id="veh170" depart="84.87" departLane="best" from="8964717#1" to="-8942081" type="veh_passenger"/>
    <trip id="veh171" depart="85.37" departLane="best" from="-415849109#0" to="241679659" type="veh_passenger"/>
    <trip id="veh172" depart="85.87" departLane="best" from="421572322#0" to="-8955205#3" type="veh_passenger"/>
    <trip id="veh173" depart="86.37" departLane="best" from="28485247#5" to="415849051#0" type="veh_passenger"/>
    <trip id="veh174" depart="86.87" departLane="best" from="-8948549" to="417044115" type="veh_passenger"/>
    <trip id="veh175" depart="87.37" departLane="best" from="-8929627#2" to="8929473" type="veh_passenger"/>
    <trip id="veh176" depart="87.87" departLane="best" from="-120595215" to="8960968#6" type="veh_passenger"/>
    <trip id="veh177" depart="88.36" departLane="best" from="-8970151#4" to="8930166#0" type="veh_passenger"/>
    <trip id="veh178" depart="88.86" departLane="best" from="47472517#1" to="50980316" type="veh_passenger"/>
    <trip id="veh179" depart="89.36" departLane="best" from="-8943555" to="-366178057#2" type="veh_passenger"/>
    <trip id="veh180" depart="89.86" departLane="best" from="415849103#0" to="-8958656#14" type="veh_passenger"/>
    <trip id="veh181" depart="90.36" departLane="best" from="-8936718#5" to="8949472#0" type="veh_passenger"/>
    <trip id="veh183" depart="91.36" departLane="best" from="-8936718#13" to="-8970002" type="veh_passenger"/>
    <trip id="veh184" depart="91.86" departLane="best" from="-8950901#1" to="-8949263#0" type="veh_passenger"/>
    <trip id="veh185" depart="92.36" departLane="best" from="-415850764#2" to="159230295#5" type="veh_passenger"/>
    <trip id="veh186" depart="92.86" departLane="best" from="8960968#7" to="51062011" type="veh_passenger"/>
    <trip id="veh187" depart="93.36" departLane="best" from="8955205#2" to="45530415#1" type="veh_passenger"/>
    <trip id="veh188" depart="93.86" departLane="best" from="-8935812" to="415850744#1" type="veh_passenger"/>
    <trip id="veh189" depart="94.36" departLane="best" from="-120595215" to="-8946655" type="veh_passenger"/>
    <trip id="veh190" depart="94.85" departLane="best" from="-8955205#4" to="417044466#5" type="veh_passenger"/>
    <trip id="veh191" depart="95.35" departLane="best" from="415849088#1" to="282118316#0" type="veh_passenger"/>
    <trip id="veh192" depart="95.85" departLane="best" from="-8962000#0" to="8957417" type="veh_passenger"/>
    <trip id="veh193" depart="96.35" departLane="best" from="534658218#4" to="-50876130#5" type="veh_passenger"/>
    <trip id="veh194" depart="96.85" departLane="best" from="-415849055" to="415849065" type="veh_passenger"/>
    <trip id="veh195" depart="97.35" departLane="best" from="366178056#7" to="-8958656#8" type="veh_passenger"/>
    <trip id="veh196" depart="97.85" departLane="best" from="415850742#0" to="-8930166#3" type="veh_passenger"/>
    <trip id="veh197" depart="98.35" departLane="best" from="-50876134" to="-258707678#4" type="veh_passenger"/>
    <trip id="veh198" depart="98.85" departLane="best" from="-78135426#1" to="28485247#0" type="veh_passenger"/>
    <trip id="veh199" depart="99.35" departLane="best" from="8939405#0" to="-377585177#4" type="veh_passenger"/>
    <trip id="veh200" depart="99.85" departLane="best" from="-8953264#2" to="50876126" type="veh_passenger"/>
    <trip id="veh201" depart="100.35" departLane="best" from="-50876132#0" to="596240901#1" type="veh_passenger"/>
    <trip id="veh202" depart="100.85" departLane="best" from="-8964054" to="-8936718#14" type="veh_passenger"/>
    <trip id="veh203" depart="101.34" departLane="best" from="415849091#0" to="-159230295#2" type="veh_passenger"/>
    <trip id="veh204" depart="101.84" departLane="best" from="50876130#0" to="8936718#6" type="veh_passenger"/>
    <trip id="veh205" depart="102.34" departLane="best" from="-415849108#1" to="236036389#2" type="veh_passenger"/>
    <trip id="veh206" depart="102.84" departLane="best" from="-8967847#2" to="-28485247#3" type="veh_passenger"/>
    <trip id="veh207" depart="103.34" departLane="best" from="-8928820" to="8949472#0" type="veh_passenger"/>
    <trip id="veh208" depart="103.84" departLane="best" from="-8958822#2" to="8941774" type="veh_passenger"/>
    <trip id="veh209" depart="104.34" departLane="best" from="415849109#4" to="8968757#0" type="veh_passenger"/>
    <trip id="veh210" depart="104.84" departLane="best" from="282118322#0" to="8963922#4" type="veh_passenger"/>
    <trip id="veh211" depart="105.34" departLane="best" from="8950901#2" to="428045956#4" type="veh_passenger"/>
    <trip id="veh213" depart="106.34" departLane="best" from="8936718#10" to="415850744#1" type="veh_passenger"/>
    <trip id="veh214" depart="106.84" departLane="best" from="8953130" to="8933859" type="veh_passenger"/>
    <trip id="veh215" depart="107.34" departLane="best" from="-8962000#1" to="-8938875#6" type="veh_passenger"/>
    <trip id="veh216" depart="107.83" departLane="best" from="-8928697#2" to="50876128#5" type="veh_passenger"/>
    <trip id="veh217" depart="108.33" departLane="best" from="50980307#1" to="415849086#1" type="veh_passenger"/>
    <trip id="veh218" depart="108.83" departLane="best" from="359605354" to="-8942699#0" type="veh_passenger"/>
    <trip id="veh219" depart="109.33" departLane="best" from="-415849045#0" to="-8946653#0" type="veh_passenger"/>
    <trip id="veh220" depart="109.83" departLane="best" from="-8932385" to="-8957238#2" type="veh_passenger"/>
    <trip id="veh221" depart="110.33" departLane="best" from="-51062012" to="534467627#0" type="veh_passenger"/>
    <trip id="veh222" depart="110.83" departLane="best" from="417706846" to="-359605354" type="veh_passenger"/>
    <trip id="veh223" depart="111.33" departLane="best" from="-8951345" to="415849111#3" type="veh_passenger"/>
    <trip id="veh224" depart="111.83" departLane="best" from="-8953640#1" to="-517226537#1" type="veh_passenger"/>
    <trip id="veh225" depart="112.33" departLane="best" from="-8953765" to="8958558#1" type="veh_passenger"/>
    <trip id="veh226" depart="112.83" departLane="best" from="271049179#2" to="534658218#3" type="veh_passenger"/>
    <trip id="veh227" depart="113.33" departLane="best" from="8942081" to="8936718#14" type="veh_passenger"/>
    <trip id="veh228" depart="113.83" departLane="best" from="-8946653#3" to="-159230295#3" type="veh_passenger"/>
    <trip id="veh229" depart="114.32" departLane="best" from="-8942286#5" to="8935102" type="veh_passenger"/>
    <trip id="veh230" depart="114.82" departLane="best" from="8941929" to="8964054" type="veh_passenger"/>
    <trip id="veh231" depart="115.32" departLane="best" from="-8953765" to="8934047#1" type="veh_passenger"/>
    <trip id="veh232" depart="115.82" departLane="best" from="120595223" to="421572322#2" type="veh_passenger"/>
    <trip id="veh233" depart="116.32" departLane="best" from="-50980315#1" to="-8929627#3" type="veh_passenger"/>
    <trip id="veh234" depart="116.82" departLane="best" from="-8957037#1" to="-269869578#0" type="veh_passenger"/>
    <trip id="veh235" depart="117.32" departLane="best" from="-8938875#4" to="51062012" type="veh_passenger"/>
    <trip id="veh236" depart="117.82" departLane="best" from="-8950901#5" to="-50876128#1" type="veh_passenger"/>
    <trip id="veh237" depart="118.32" departLane="best" from="-8960968#5" to="-417706846" type="veh_passenger"/>
    <trip id="veh238" depart="118.82" departLane="best" from="338200369#0" to="-258707678#9" type="veh_passenger"/>
    <trip id="veh239" depart="119.32" departLane="best" from="-8949612" to="415855070" type="veh_passenger"/>
    <trip id="veh240" depart="119.82" departLane="best" from="-258707678#0" to="50876131#2" type="veh_passenger"/>
    <trip id="veh241" depart="120.32" departLane="best" from="-417044466#5" to="27925138#2" type="veh_passenger"/>
    <trip id="veh242" depart="120.81" departLane="best" from="-28485225#6" to="-8965546#1" type="veh_passenger"/>
    <trip id="veh243" depart="121.31" departLane="best" from="-50980307#0" to="-8958518" type="veh_passenger"/>
    <trip id="veh244" depart="121.81" departLane="best" from="50877464#1" to="-8965546#1" type="veh_passenger"/>
    <trip id="veh245" depart="122.31" departLane="best" from="50876130#4" to="8946086#1" type="veh_passenger"/>
    <trip id="veh246" depart="122.81" departLane="best" from="-8929473" to="-415849059" type="veh_passenger"/>
    <trip id="veh247" depart="123.31" departLane="best" from="-241679659" to="415849110#0" type="veh_passenger"/>
    <trip id="veh248" depart="123.81" departLane="best" from="8970372#1" to="-8960968#3" type="veh_passenger"/>
    <trip id="veh249" depart="124.31" departLane="best" from="415849078" to="8937676" type="veh_passenger"/>
    <trip id="veh250" depart="124.81" departLane="best" from="415849085#0" to="8935757" type="veh_passenger"/>
    <trip id="veh251" depart="125.31" departLane="best" from="8962899#4" to="-51062010#2" type="veh_passenger"/>
    <trip id="veh252" depart="125.81" departLane="best" from="-241679659" to="-428045956#2" type="veh_passenger"/>
    <trip id="veh253" depart="126.31" departLane="best" from="-415850763" to="50980316" type="veh_passenger"/>
    <trip id="veh254" depart="126.81" departLane="best" from="236036392" to="-8929558#1" type="veh_passenger"/>
    <trip id="veh255" depart="127.30" departLane="best" from="415855092#0" to="8936718#17" type="veh_passenger"/>
    <trip id="veh256" depart="127.80" departLane="best" from="-45530415#1" to="428045955#0" type="veh_passenger"/>
    <trip id="veh257" depart="128.30" departLane="best" from="50876128#1" to="-415850758#1" type="veh_passenger"/>
    <trip id="veh258" depart="128.80" departLane="best" from="8932537" to="8965504#2" type="veh_passenger"/>
    <trip id="veh259" depart="129.30" departLane="best" from="-415849108#1" to="-258707678#6" type="veh_passenger"/>
    <trip id="veh260" depart="129.80" departLane="best" from="-8936718#19" to="51062011" type="veh_passenger"/>
    <trip id="veh261" depart="130.30" departLane="best" from="8963922#0" to="-8968669#2" type="veh_passenger"/>
    <trip id="veh262" depart="130.80" departLane="best" from="417706950#3" to="-415849046" type="veh_passenger"/>
    <trip id="veh263" depart="131.30" departLane="best" from="415855067" to="47472517#1" type="veh_passenger"/>
    <trip id="veh264" depart="131.80" departLane="best" from="-415849098" to="8936996#2" type="veh_passenger"/>
    <trip id="veh265" depart="132.30" departLane="best" from="8939405#1" to="417727485" type="veh_passenger"/>
    <trip id="veh266" depart="132.80" departLane="best" from="-415850758#2" to="8968501#1" type="veh_passenger"/>
    <trip id="veh267" depart="133.30" departLane="best" from="51062014#2" to="-8960740" type="veh_passenger"/>
    <trip id="veh268" depart="133.79" departLane="best" from="-8955205#3" to="-8963922#0" type="veh_passenger"/>
    <trip id="veh269" depart="134.29" departLane="best" from="-8965504#2" to="-8959457#2" type="veh_passenger"/>
    <trip id="veh270" depart="134.79" departLane="best" from="8939405#0" to="8943555" type="veh_passenger"/>
    <trip id="veh271" depart="135.29" departLane="best" from="-415849107" to="8965218#0" type="veh_passenger"/>
    <trip id="veh273" depart="136.29" departLane="best" from="417706852" to="241679659" type="veh_passenger"/>